* NGSPICE file created from Systolic4x4_serial_io.ext - technology: sky130A

* Black-box entry subcircuit for sky130_ef_sc_hd__decap_12 abstract view
.subckt sky130_ef_sc_hd__decap_12 VPWR VGND VPB VNB
.ends

* Black-box entry subcircuit for sky130_fd_sc_hd__decap_4 abstract view
.subckt sky130_fd_sc_hd__decap_4 VGND VNB VPB VPWR
.ends

* Black-box entry subcircuit for sky130_fd_sc_hd__decap_6 abstract view
.subckt sky130_fd_sc_hd__decap_6 VGND VNB VPB VPWR
.ends

* Black-box entry subcircuit for sky130_fd_sc_hd__fill_2 abstract view
.subckt sky130_fd_sc_hd__fill_2 VGND VNB VPB VPWR
.ends

* Black-box entry subcircuit for sky130_fd_sc_hd__tapvpwrvgnd_1 abstract view
.subckt sky130_fd_sc_hd__tapvpwrvgnd_1 VGND VPWR
.ends

* Black-box entry subcircuit for sky130_fd_sc_hd__fill_1 abstract view
.subckt sky130_fd_sc_hd__fill_1 VGND VNB VPB VPWR
.ends

* Black-box entry subcircuit for sky130_fd_sc_hd__nand2_1 abstract view
.subckt sky130_fd_sc_hd__nand2_1 A B VGND VNB VPB VPWR Y
.ends

* Black-box entry subcircuit for sky130_fd_sc_hd__or2_1 abstract view
.subckt sky130_fd_sc_hd__or2_1 A B VGND VNB VPB VPWR X
.ends

* Black-box entry subcircuit for sky130_fd_sc_hd__a211o_1 abstract view
.subckt sky130_fd_sc_hd__a211o_1 A1 A2 B1 C1 VGND VNB VPB VPWR X
.ends

* Black-box entry subcircuit for sky130_fd_sc_hd__mux2_1 abstract view
.subckt sky130_fd_sc_hd__mux2_1 A0 A1 S VGND VNB VPB VPWR X
.ends

* Black-box entry subcircuit for sky130_fd_sc_hd__a31o_1 abstract view
.subckt sky130_fd_sc_hd__a31o_1 A1 A2 A3 B1 VGND VNB VPB VPWR X
.ends

* Black-box entry subcircuit for sky130_fd_sc_hd__o21ai_1 abstract view
.subckt sky130_fd_sc_hd__o21ai_1 A1 A2 B1 VGND VNB VPB VPWR Y
.ends

* Black-box entry subcircuit for sky130_fd_sc_hd__decap_8 abstract view
.subckt sky130_fd_sc_hd__decap_8 VGND VNB VPB VPWR
.ends

* Black-box entry subcircuit for sky130_fd_sc_hd__a21bo_1 abstract view
.subckt sky130_fd_sc_hd__a21bo_1 A1 A2 B1_N VGND VNB VPB VPWR X
.ends

* Black-box entry subcircuit for sky130_fd_sc_hd__o21ba_1 abstract view
.subckt sky130_fd_sc_hd__o21ba_1 A1 A2 B1_N VGND VNB VPB VPWR X
.ends

* Black-box entry subcircuit for sky130_fd_sc_hd__nor2_1 abstract view
.subckt sky130_fd_sc_hd__nor2_1 A B VGND VNB VPB VPWR Y
.ends

* Black-box entry subcircuit for sky130_fd_sc_hd__and2_1 abstract view
.subckt sky130_fd_sc_hd__and2_1 A B VGND VNB VPB VPWR X
.ends

* Black-box entry subcircuit for sky130_fd_sc_hd__a221o_1 abstract view
.subckt sky130_fd_sc_hd__a221o_1 A1 A2 B1 B2 C1 VGND VNB VPB VPWR X
.ends

* Black-box entry subcircuit for sky130_fd_sc_hd__a32o_1 abstract view
.subckt sky130_fd_sc_hd__a32o_1 A1 A2 A3 B1 B2 VGND VNB VPB VPWR X
.ends

* Black-box entry subcircuit for sky130_fd_sc_hd__decap_3 abstract view
.subckt sky130_fd_sc_hd__decap_3 VGND VNB VPB VPWR
.ends

* Black-box entry subcircuit for sky130_fd_sc_hd__xnor2_1 abstract view
.subckt sky130_fd_sc_hd__xnor2_1 A B VGND VNB VPB VPWR Y
.ends

* Black-box entry subcircuit for sky130_fd_sc_hd__dfrtp_1 abstract view
.subckt sky130_fd_sc_hd__dfrtp_1 CLK D RESET_B VGND VNB VPB VPWR Q
.ends

* Black-box entry subcircuit for sky130_fd_sc_hd__xor2_1 abstract view
.subckt sky130_fd_sc_hd__xor2_1 A B VGND VNB VPB VPWR X
.ends

* Black-box entry subcircuit for sky130_fd_sc_hd__a21o_1 abstract view
.subckt sky130_fd_sc_hd__a21o_1 A1 A2 B1 VGND VNB VPB VPWR X
.ends

* Black-box entry subcircuit for sky130_fd_sc_hd__a22o_1 abstract view
.subckt sky130_fd_sc_hd__a22o_1 A1 A2 B1 B2 VGND VNB VPB VPWR X
.ends

* Black-box entry subcircuit for sky130_fd_sc_hd__dfrtp_2 abstract view
.subckt sky130_fd_sc_hd__dfrtp_2 CLK D RESET_B VGND VNB VPB VPWR Q
.ends

* Black-box entry subcircuit for sky130_fd_sc_hd__and3_1 abstract view
.subckt sky130_fd_sc_hd__and3_1 A B C VGND VNB VPB VPWR X
.ends

* Black-box entry subcircuit for sky130_fd_sc_hd__dfxtp_1 abstract view
.subckt sky130_fd_sc_hd__dfxtp_1 CLK D VGND VNB VPB VPWR Q
.ends

* Black-box entry subcircuit for sky130_fd_sc_hd__nand2b_1 abstract view
.subckt sky130_fd_sc_hd__nand2b_1 A_N B VGND VNB VPB VPWR Y
.ends

* Black-box entry subcircuit for sky130_fd_sc_hd__inv_2 abstract view
.subckt sky130_fd_sc_hd__inv_2 A VGND VNB VPB VPWR Y
.ends

* Black-box entry subcircuit for sky130_fd_sc_hd__and2b_1 abstract view
.subckt sky130_fd_sc_hd__and2b_1 A_N B VGND VNB VPB VPWR X
.ends

* Black-box entry subcircuit for sky130_fd_sc_hd__o21a_1 abstract view
.subckt sky130_fd_sc_hd__o21a_1 A1 A2 B1 VGND VNB VPB VPWR X
.ends

* Black-box entry subcircuit for sky130_fd_sc_hd__xor2_2 abstract view
.subckt sky130_fd_sc_hd__xor2_2 A B VGND VNB VPB VPWR X
.ends

* Black-box entry subcircuit for sky130_fd_sc_hd__clkbuf_8 abstract view
.subckt sky130_fd_sc_hd__clkbuf_8 A VGND VNB VPB VPWR X
.ends

* Black-box entry subcircuit for sky130_fd_sc_hd__a21oi_1 abstract view
.subckt sky130_fd_sc_hd__a21oi_1 A1 A2 B1 VGND VNB VPB VPWR Y
.ends

* Black-box entry subcircuit for sky130_fd_sc_hd__and4b_1 abstract view
.subckt sky130_fd_sc_hd__and4b_1 A_N B C D VGND VNB VPB VPWR X
.ends

* Black-box entry subcircuit for sky130_fd_sc_hd__a22oi_1 abstract view
.subckt sky130_fd_sc_hd__a22oi_1 A1 A2 B1 B2 VGND VNB VPB VPWR Y
.ends

* Black-box entry subcircuit for sky130_fd_sc_hd__o211ai_1 abstract view
.subckt sky130_fd_sc_hd__o211ai_1 A1 A2 B1 C1 VGND VNB VPB VPWR Y
.ends

* Black-box entry subcircuit for sky130_fd_sc_hd__and4_1 abstract view
.subckt sky130_fd_sc_hd__and4_1 A B C D VGND VNB VPB VPWR X
.ends

* Black-box entry subcircuit for sky130_fd_sc_hd__dfrtp_4 abstract view
.subckt sky130_fd_sc_hd__dfrtp_4 CLK D RESET_B VGND VNB VPB VPWR Q
.ends

* Black-box entry subcircuit for sky130_fd_sc_hd__o31a_1 abstract view
.subckt sky130_fd_sc_hd__o31a_1 A1 A2 A3 B1 VGND VNB VPB VPWR X
.ends

* Black-box entry subcircuit for sky130_fd_sc_hd__or3_1 abstract view
.subckt sky130_fd_sc_hd__or3_1 A B C VGND VNB VPB VPWR X
.ends

* Black-box entry subcircuit for sky130_fd_sc_hd__a2bb2o_1 abstract view
.subckt sky130_fd_sc_hd__a2bb2o_1 A1_N A2_N B1 B2 VGND VNB VPB VPWR X
.ends

* Black-box entry subcircuit for sky130_fd_sc_hd__o211ai_2 abstract view
.subckt sky130_fd_sc_hd__o211ai_2 A1 A2 B1 C1 VGND VNB VPB VPWR Y
.ends

* Black-box entry subcircuit for sky130_fd_sc_hd__or3b_1 abstract view
.subckt sky130_fd_sc_hd__or3b_1 A B C_N VGND VNB VPB VPWR X
.ends

* Black-box entry subcircuit for sky130_fd_sc_hd__o41a_1 abstract view
.subckt sky130_fd_sc_hd__o41a_1 A1 A2 A3 A4 B1 VGND VNB VPB VPWR X
.ends

* Black-box entry subcircuit for sky130_fd_sc_hd__a21boi_1 abstract view
.subckt sky130_fd_sc_hd__a21boi_1 A1 A2 B1_N VGND VNB VPB VPWR Y
.ends

* Black-box entry subcircuit for sky130_fd_sc_hd__o32a_1 abstract view
.subckt sky130_fd_sc_hd__o32a_1 A1 A2 A3 B1 B2 VGND VNB VPB VPWR X
.ends

* Black-box entry subcircuit for sky130_fd_sc_hd__nand2_4 abstract view
.subckt sky130_fd_sc_hd__nand2_4 A B VGND VNB VPB VPWR Y
.ends

* Black-box entry subcircuit for sky130_fd_sc_hd__nand4_1 abstract view
.subckt sky130_fd_sc_hd__nand4_1 A B C D VGND VNB VPB VPWR Y
.ends

* Black-box entry subcircuit for sky130_fd_sc_hd__nand3_1 abstract view
.subckt sky130_fd_sc_hd__nand3_1 A B C VGND VNB VPB VPWR Y
.ends

* Black-box entry subcircuit for sky130_fd_sc_hd__o211a_1 abstract view
.subckt sky130_fd_sc_hd__o211a_1 A1 A2 B1 C1 VGND VNB VPB VPWR X
.ends

* Black-box entry subcircuit for sky130_fd_sc_hd__clkinvlp_4 abstract view
.subckt sky130_fd_sc_hd__clkinvlp_4 A VGND VNB VPB VPWR Y
.ends

* Black-box entry subcircuit for sky130_fd_sc_hd__bufinv_16 abstract view
.subckt sky130_fd_sc_hd__bufinv_16 A VGND VNB VPB VPWR Y
.ends

* Black-box entry subcircuit for sky130_fd_sc_hd__clkinv_2 abstract view
.subckt sky130_fd_sc_hd__clkinv_2 A VGND VNB VPB VPWR Y
.ends

* Black-box entry subcircuit for sky130_fd_sc_hd__buf_12 abstract view
.subckt sky130_fd_sc_hd__buf_12 A VGND VNB VPB VPWR X
.ends

* Black-box entry subcircuit for sky130_fd_sc_hd__and3b_1 abstract view
.subckt sky130_fd_sc_hd__and3b_1 A_N B C VGND VNB VPB VPWR X
.ends

* Black-box entry subcircuit for sky130_fd_sc_hd__clkbuf_16 abstract view
.subckt sky130_fd_sc_hd__clkbuf_16 A VGND VNB VPB VPWR X
.ends

* Black-box entry subcircuit for sky130_fd_sc_hd__clkinv_4 abstract view
.subckt sky130_fd_sc_hd__clkinv_4 A VGND VNB VPB VPWR Y
.ends

* Black-box entry subcircuit for sky130_fd_sc_hd__a311oi_4 abstract view
.subckt sky130_fd_sc_hd__a311oi_4 A1 A2 A3 B1 C1 VGND VNB VPB VPWR Y
.ends

* Black-box entry subcircuit for sky130_fd_sc_hd__diode_2 abstract view
.subckt sky130_fd_sc_hd__diode_2 DIODE VGND VNB VPB VPWR
.ends

* Black-box entry subcircuit for sky130_fd_sc_hd__nand2_2 abstract view
.subckt sky130_fd_sc_hd__nand2_2 A B VGND VNB VPB VPWR Y
.ends

* Black-box entry subcircuit for sky130_fd_sc_hd__a21oi_2 abstract view
.subckt sky130_fd_sc_hd__a21oi_2 A1 A2 B1 VGND VNB VPB VPWR Y
.ends

* Black-box entry subcircuit for sky130_fd_sc_hd__buf_1 abstract view
.subckt sky130_fd_sc_hd__buf_1 A VGND VNB VPB VPWR X
.ends

* Black-box entry subcircuit for sky130_fd_sc_hd__o22a_1 abstract view
.subckt sky130_fd_sc_hd__o22a_1 A1 A2 B1 B2 VGND VNB VPB VPWR X
.ends

* Black-box entry subcircuit for sky130_fd_sc_hd__o2bb2a_1 abstract view
.subckt sky130_fd_sc_hd__o2bb2a_1 A1_N A2_N B1 B2 VGND VNB VPB VPWR X
.ends

* Black-box entry subcircuit for sky130_fd_sc_hd__or4_1 abstract view
.subckt sky130_fd_sc_hd__or4_1 A B C D VGND VNB VPB VPWR X
.ends

* Black-box entry subcircuit for sky130_fd_sc_hd__a211oi_2 abstract view
.subckt sky130_fd_sc_hd__a211oi_2 A1 A2 B1 C1 VGND VNB VPB VPWR Y
.ends

* Black-box entry subcircuit for sky130_fd_sc_hd__a211oi_1 abstract view
.subckt sky130_fd_sc_hd__a211oi_1 A1 A2 B1 C1 VGND VNB VPB VPWR Y
.ends

* Black-box entry subcircuit for sky130_fd_sc_hd__inv_6 abstract view
.subckt sky130_fd_sc_hd__inv_6 A VGND VNB VPB VPWR Y
.ends

* Black-box entry subcircuit for sky130_fd_sc_hd__clkbuf_4 abstract view
.subckt sky130_fd_sc_hd__clkbuf_4 A VGND VNB VPB VPWR X
.ends

* Black-box entry subcircuit for sky130_fd_sc_hd__nand3_2 abstract view
.subckt sky130_fd_sc_hd__nand3_2 A B C VGND VNB VPB VPWR Y
.ends

* Black-box entry subcircuit for sky130_fd_sc_hd__o21bai_1 abstract view
.subckt sky130_fd_sc_hd__o21bai_1 A1 A2 B1_N VGND VNB VPB VPWR Y
.ends

* Black-box entry subcircuit for sky130_fd_sc_hd__or2_2 abstract view
.subckt sky130_fd_sc_hd__or2_2 A B VGND VNB VPB VPWR X
.ends

* Black-box entry subcircuit for sky130_fd_sc_hd__a2111o_1 abstract view
.subckt sky130_fd_sc_hd__a2111o_1 A1 A2 B1 C1 D1 VGND VNB VPB VPWR X
.ends

* Black-box entry subcircuit for sky130_fd_sc_hd__nor4_1 abstract view
.subckt sky130_fd_sc_hd__nor4_1 A B C D VGND VNB VPB VPWR Y
.ends

* Black-box entry subcircuit for sky130_fd_sc_hd__and3_2 abstract view
.subckt sky130_fd_sc_hd__and3_2 A B C VGND VNB VPB VPWR X
.ends

* Black-box entry subcircuit for sky130_fd_sc_hd__o21ai_2 abstract view
.subckt sky130_fd_sc_hd__o21ai_2 A1 A2 B1 VGND VNB VPB VPWR Y
.ends

* Black-box entry subcircuit for sky130_fd_sc_hd__xnor2_4 abstract view
.subckt sky130_fd_sc_hd__xnor2_4 A B VGND VNB VPB VPWR Y
.ends

* Black-box entry subcircuit for sky130_fd_sc_hd__nor3_1 abstract view
.subckt sky130_fd_sc_hd__nor3_1 A B C VGND VNB VPB VPWR Y
.ends

* Black-box entry subcircuit for sky130_fd_sc_hd__nand4_2 abstract view
.subckt sky130_fd_sc_hd__nand4_2 A B C D VGND VNB VPB VPWR Y
.ends

* Black-box entry subcircuit for sky130_fd_sc_hd__inv_8 abstract view
.subckt sky130_fd_sc_hd__inv_8 A VGND VNB VPB VPWR Y
.ends

* Black-box entry subcircuit for sky130_fd_sc_hd__o211a_2 abstract view
.subckt sky130_fd_sc_hd__o211a_2 A1 A2 B1 C1 VGND VNB VPB VPWR X
.ends

* Black-box entry subcircuit for sky130_fd_sc_hd__xnor2_2 abstract view
.subckt sky130_fd_sc_hd__xnor2_2 A B VGND VNB VPB VPWR Y
.ends

* Black-box entry subcircuit for sky130_fd_sc_hd__o31ai_1 abstract view
.subckt sky130_fd_sc_hd__o31ai_1 A1 A2 A3 B1 VGND VNB VPB VPWR Y
.ends

* Black-box entry subcircuit for sky130_fd_sc_hd__a31oi_1 abstract view
.subckt sky130_fd_sc_hd__a31oi_1 A1 A2 A3 B1 VGND VNB VPB VPWR Y
.ends

* Black-box entry subcircuit for sky130_fd_sc_hd__clkinv_8 abstract view
.subckt sky130_fd_sc_hd__clkinv_8 A VGND VNB VPB VPWR Y
.ends

* Black-box entry subcircuit for sky130_fd_sc_hd__buf_2 abstract view
.subckt sky130_fd_sc_hd__buf_2 A VGND VNB VPB VPWR X
.ends

* Black-box entry subcircuit for sky130_fd_sc_hd__o311a_1 abstract view
.subckt sky130_fd_sc_hd__o311a_1 A1 A2 A3 B1 C1 VGND VNB VPB VPWR X
.ends

* Black-box entry subcircuit for sky130_fd_sc_hd__o211ai_4 abstract view
.subckt sky130_fd_sc_hd__o211ai_4 A1 A2 B1 C1 VGND VNB VPB VPWR Y
.ends

* Black-box entry subcircuit for sky130_fd_sc_hd__nor3_2 abstract view
.subckt sky130_fd_sc_hd__nor3_2 A B C VGND VNB VPB VPWR Y
.ends

* Black-box entry subcircuit for sky130_fd_sc_hd__and2_4 abstract view
.subckt sky130_fd_sc_hd__and2_4 A B VGND VNB VPB VPWR X
.ends

* Black-box entry subcircuit for sky130_fd_sc_hd__a31oi_2 abstract view
.subckt sky130_fd_sc_hd__a31oi_2 A1 A2 A3 B1 VGND VNB VPB VPWR Y
.ends

* Black-box entry subcircuit for sky130_fd_sc_hd__inv_12 abstract view
.subckt sky130_fd_sc_hd__inv_12 A VGND VNB VPB VPWR Y
.ends

* Black-box entry subcircuit for sky130_fd_sc_hd__a211o_2 abstract view
.subckt sky130_fd_sc_hd__a211o_2 A1 A2 B1 C1 VGND VNB VPB VPWR X
.ends

* Black-box entry subcircuit for sky130_fd_sc_hd__buf_6 abstract view
.subckt sky130_fd_sc_hd__buf_6 A VGND VNB VPB VPWR X
.ends

* Black-box entry subcircuit for sky130_fd_sc_hd__a22oi_2 abstract view
.subckt sky130_fd_sc_hd__a22oi_2 A1 A2 B1 B2 VGND VNB VPB VPWR Y
.ends

* Black-box entry subcircuit for sky130_fd_sc_hd__a41o_1 abstract view
.subckt sky130_fd_sc_hd__a41o_1 A1 A2 A3 A4 B1 VGND VNB VPB VPWR X
.ends

* Black-box entry subcircuit for sky130_fd_sc_hd__inv_4 abstract view
.subckt sky130_fd_sc_hd__inv_4 A VGND VNB VPB VPWR Y
.ends

* Black-box entry subcircuit for sky130_fd_sc_hd__buf_8 abstract view
.subckt sky130_fd_sc_hd__buf_8 A VGND VNB VPB VPWR X
.ends

* Black-box entry subcircuit for sky130_fd_sc_hd__nor2_2 abstract view
.subckt sky130_fd_sc_hd__nor2_2 A B VGND VNB VPB VPWR Y
.ends

* Black-box entry subcircuit for sky130_fd_sc_hd__and4bb_1 abstract view
.subckt sky130_fd_sc_hd__and4bb_1 A_N B_N C D VGND VNB VPB VPWR X
.ends

* Black-box entry subcircuit for sky130_fd_sc_hd__or4b_1 abstract view
.subckt sky130_fd_sc_hd__or4b_1 A B C D_N VGND VNB VPB VPWR X
.ends

* Black-box entry subcircuit for sky130_fd_sc_hd__clkbuf_2 abstract view
.subckt sky130_fd_sc_hd__clkbuf_2 A VGND VNB VPB VPWR X
.ends

* Black-box entry subcircuit for sky130_fd_sc_hd__o31ai_2 abstract view
.subckt sky130_fd_sc_hd__o31ai_2 A1 A2 A3 B1 VGND VNB VPB VPWR Y
.ends

* Black-box entry subcircuit for sky130_fd_sc_hd__nor2_8 abstract view
.subckt sky130_fd_sc_hd__nor2_8 A B VGND VNB VPB VPWR Y
.ends

* Black-box entry subcircuit for sky130_fd_sc_hd__dlymetal6s2s_1 abstract view
.subckt sky130_fd_sc_hd__dlymetal6s2s_1 A VGND VNB VPB VPWR X
.ends

* Black-box entry subcircuit for sky130_fd_sc_hd__and2_2 abstract view
.subckt sky130_fd_sc_hd__and2_2 A B VGND VNB VPB VPWR X
.ends

* Black-box entry subcircuit for sky130_fd_sc_hd__o311ai_4 abstract view
.subckt sky130_fd_sc_hd__o311ai_4 A1 A2 A3 B1 C1 VGND VNB VPB VPWR Y
.ends

* Black-box entry subcircuit for sky130_fd_sc_hd__or4b_2 abstract view
.subckt sky130_fd_sc_hd__or4b_2 A B C D_N VGND VNB VPB VPWR X
.ends

* Black-box entry subcircuit for sky130_fd_sc_hd__clkinv_16 abstract view
.subckt sky130_fd_sc_hd__clkinv_16 A VGND VNB VPB VPWR Y
.ends

* Black-box entry subcircuit for sky130_fd_sc_hd__a221oi_2 abstract view
.subckt sky130_fd_sc_hd__a221oi_2 A1 A2 B1 B2 C1 VGND VNB VPB VPWR Y
.ends

* Black-box entry subcircuit for sky130_fd_sc_hd__o221a_1 abstract view
.subckt sky130_fd_sc_hd__o221a_1 A1 A2 B1 B2 C1 VGND VNB VPB VPWR X
.ends

* Black-box entry subcircuit for sky130_fd_sc_hd__buf_4 abstract view
.subckt sky130_fd_sc_hd__buf_4 A VGND VNB VPB VPWR X
.ends

* Black-box entry subcircuit for sky130_fd_sc_hd__nand4_4 abstract view
.subckt sky130_fd_sc_hd__nand4_4 A B C D VGND VNB VPB VPWR Y
.ends

* Black-box entry subcircuit for sky130_fd_sc_hd__a21boi_2 abstract view
.subckt sky130_fd_sc_hd__a21boi_2 A1 A2 B1_N VGND VNB VPB VPWR Y
.ends

* Black-box entry subcircuit for sky130_fd_sc_hd__a221oi_1 abstract view
.subckt sky130_fd_sc_hd__a221oi_1 A1 A2 B1 B2 C1 VGND VNB VPB VPWR Y
.ends

* Black-box entry subcircuit for sky130_fd_sc_hd__dfxtp_2 abstract view
.subckt sky130_fd_sc_hd__dfxtp_2 CLK D VGND VNB VPB VPWR Q
.ends

* Black-box entry subcircuit for sky130_fd_sc_hd__nor4b_1 abstract view
.subckt sky130_fd_sc_hd__nor4b_1 A B C D_N VGND VNB VPB VPWR Y
.ends

* Black-box entry subcircuit for sky130_fd_sc_hd__a311oi_2 abstract view
.subckt sky130_fd_sc_hd__a311oi_2 A1 A2 A3 B1 C1 VGND VNB VPB VPWR Y
.ends

* Black-box entry subcircuit for sky130_fd_sc_hd__a31o_4 abstract view
.subckt sky130_fd_sc_hd__a31o_4 A1 A2 A3 B1 VGND VNB VPB VPWR X
.ends

* Black-box entry subcircuit for sky130_fd_sc_hd__xor2_4 abstract view
.subckt sky130_fd_sc_hd__xor2_4 A B VGND VNB VPB VPWR X
.ends

* Black-box entry subcircuit for sky130_fd_sc_hd__a211oi_4 abstract view
.subckt sky130_fd_sc_hd__a211oi_4 A1 A2 B1 C1 VGND VNB VPB VPWR Y
.ends

* Black-box entry subcircuit for sky130_fd_sc_hd__nor3b_1 abstract view
.subckt sky130_fd_sc_hd__nor3b_1 A B C_N VGND VNB VPB VPWR Y
.ends

* Black-box entry subcircuit for sky130_fd_sc_hd__a311o_1 abstract view
.subckt sky130_fd_sc_hd__a311o_1 A1 A2 A3 B1 C1 VGND VNB VPB VPWR X
.ends

* Black-box entry subcircuit for sky130_fd_sc_hd__nand3b_2 abstract view
.subckt sky130_fd_sc_hd__nand3b_2 A_N B C VGND VNB VPB VPWR Y
.ends

* Black-box entry subcircuit for sky130_fd_sc_hd__a311o_2 abstract view
.subckt sky130_fd_sc_hd__a311o_2 A1 A2 A3 B1 C1 VGND VNB VPB VPWR X
.ends

* Black-box entry subcircuit for sky130_fd_sc_hd__nand2_8 abstract view
.subckt sky130_fd_sc_hd__nand2_8 A B VGND VNB VPB VPWR Y
.ends

* Black-box entry subcircuit for sky130_fd_sc_hd__or2_4 abstract view
.subckt sky130_fd_sc_hd__or2_4 A B VGND VNB VPB VPWR X
.ends

* Black-box entry subcircuit for sky130_fd_sc_hd__nand3b_1 abstract view
.subckt sky130_fd_sc_hd__nand3b_1 A_N B C VGND VNB VPB VPWR Y
.ends

* Black-box entry subcircuit for sky130_fd_sc_hd__and2b_4 abstract view
.subckt sky130_fd_sc_hd__and2b_4 A_N B VGND VNB VPB VPWR X
.ends

* Black-box entry subcircuit for sky130_fd_sc_hd__o22ai_2 abstract view
.subckt sky130_fd_sc_hd__o22ai_2 A1 A2 B1 B2 VGND VNB VPB VPWR Y
.ends

* Black-box entry subcircuit for sky130_fd_sc_hd__nand3_4 abstract view
.subckt sky130_fd_sc_hd__nand3_4 A B C VGND VNB VPB VPWR Y
.ends

.subckt Systolic4x4_serial_io A_in_frame_sync A_in_serial_clk A_in_serial_data B_in_frame_sync
+ B_in_serial_clk B_in_serial_data C_out_frame_sync C_out_serial_clk C_out_serial_data
+ VGND VPWR clk done rst_n start
XFILLER_228_813 VPWR VGND VPWR VGND sky130_ef_sc_hd__decap_12
XFILLER_67_520 VGND VGND VPWR VPWR sky130_fd_sc_hd__decap_4
XFILLER_45_1385 VGND VGND VPWR VPWR sky130_fd_sc_hd__decap_4
XFILLER_239_161 VGND VGND VPWR VPWR sky130_fd_sc_hd__decap_6
XFILLER_227_334 VGND VGND VPWR VPWR sky130_fd_sc_hd__fill_2
XTAP_TAPCELL_ROW_199_5594 VGND VPWR sky130_fd_sc_hd__tapvpwrvgnd_1
XFILLER_55_704 VGND VGND VPWR VPWR sky130_fd_sc_hd__fill_1
X_18869_ _05977_ _05978_ VGND VGND VPWR VPWR _05979_ sky130_fd_sc_hd__nand2_1
XFILLER_67_586 VGND VGND VPWR VPWR sky130_fd_sc_hd__fill_1
X_20900_ _07774_ _07775_ VGND VGND VPWR VPWR _07776_ sky130_fd_sc_hd__or2_1
X_21880_ _08677_ _08678_ _08670_ _08673_ VGND VGND VPWR VPWR _08679_ sky130_fd_sc_hd__a211o_1
XFILLER_55_759 VPWR VGND VPWR VGND sky130_ef_sc_hd__decap_12
X_20831_ systolic_inst.A_outs\[4\]\[4\] systolic_inst.A_shift\[8\]\[4\] net121 VGND
+ VGND VPWR VPWR _01654_ sky130_fd_sc_hd__mux2_1
XFILLER_242_337 VPWR VGND VPWR VGND sky130_ef_sc_hd__decap_12
XFILLER_35_461 VPWR VGND VPWR VGND sky130_ef_sc_hd__decap_12
XFILLER_82_589 VGND VGND VPWR VPWR sky130_fd_sc_hd__decap_4
X_20762_ _07660_ _07666_ _07667_ net60 VGND VGND VPWR VPWR _07670_ sky130_fd_sc_hd__a31o_1
X_23550_ _10130_ _10132_ _10171_ VGND VGND VPWR VPWR _10173_ sky130_fd_sc_hd__o21ai_1
XFILLER_51_943 VGND VGND VPWR VPWR sky130_fd_sc_hd__decap_8
X_22501_ _09226_ _09227_ _09225_ VGND VGND VPWR VPWR _09233_ sky130_fd_sc_hd__a21bo_1
XFILLER_196_937 VPWR VGND VPWR VGND sky130_ef_sc_hd__decap_12
XTAP_TAPCELL_ROW_154_4443 VGND VPWR sky130_fd_sc_hd__tapvpwrvgnd_1
XFILLER_22_133 VGND VGND VPWR VPWR sky130_fd_sc_hd__decap_6
XTAP_TAPCELL_ROW_154_4454 VGND VPWR sky130_fd_sc_hd__tapvpwrvgnd_1
X_23481_ _10073_ _10075_ _10074_ VGND VGND VPWR VPWR _10105_ sky130_fd_sc_hd__o21ba_1
XFILLER_211_757 VGND VGND VPWR VPWR sky130_fd_sc_hd__decap_8
X_20693_ _07603_ _07605_ _07601_ VGND VGND VPWR VPWR _07611_ sky130_fd_sc_hd__a21bo_1
XFILLER_51_998 VGND VGND VPWR VPWR sky130_fd_sc_hd__decap_8
XFILLER_167_138 VGND VGND VPWR VPWR sky130_fd_sc_hd__fill_1
XFILLER_52_1323 VGND VGND VPWR VPWR sky130_fd_sc_hd__fill_1
X_22432_ _09170_ _09171_ VGND VGND VPWR VPWR _09172_ sky130_fd_sc_hd__nor2_1
XFILLER_22_177 VPWR VGND VPWR VGND sky130_ef_sc_hd__decap_12
X_25220_ net110 ser_C.shift_reg\[438\] VGND VGND VPWR VPWR _11080_ sky130_fd_sc_hd__and2_1
XFILLER_91_1394 VGND VGND VPWR VPWR sky130_fd_sc_hd__decap_6
XFILLER_241_1063 VGND VGND VPWR VPWR sky130_fd_sc_hd__fill_1
X_22363_ _09096_ _09104_ VGND VGND VPWR VPWR _09105_ sky130_fd_sc_hd__nand2_1
XFILLER_149_897 VPWR VGND VPWR VGND sky130_ef_sc_hd__decap_12
X_25151_ C_out\[402\] net101 net73 ser_C.shift_reg\[402\] _11045_ VGND VGND VPWR VPWR
+ _02652_ sky130_fd_sc_hd__a221o_1
XFILLER_148_385 VGND VGND VPWR VPWR sky130_fd_sc_hd__fill_2
X_24102_ _10560_ systolic_inst.B_shift\[19\]\[6\] net71 VGND VGND VPWR VPWR _02088_
+ sky130_fd_sc_hd__mux2_1
X_21314_ net63 _08168_ _08169_ systolic_inst.acc_wires\[4\]\[9\] net108 VGND VGND
+ VPWR VPWR _01691_ sky130_fd_sc_hd__a32o_1
X_25082_ net112 ser_C.shift_reg\[369\] VGND VGND VPWR VPWR _11011_ sky130_fd_sc_hd__and2_1
XFILLER_108_249 VGND VGND VPWR VPWR sky130_fd_sc_hd__decap_3
X_22294_ _09029_ _09037_ VGND VGND VPWR VPWR _09038_ sky130_fd_sc_hd__xnor2_1
XFILLER_50_1091 VGND VGND VPWR VPWR sky130_fd_sc_hd__fill_1
XFILLER_190_141 VGND VGND VPWR VPWR sky130_fd_sc_hd__decap_8
X_24033_ systolic_inst.B_shift\[8\]\[4\] B_in\[36\] _00008_ VGND VGND VPWR VPWR _10534_
+ sky130_fd_sc_hd__mux2_1
X_28910_ clknet_leaf_281_clk _02708_ net139 VGND VGND VPWR VPWR ser_C.shift_reg\[458\]
+ sky130_fd_sc_hd__dfrtp_1
XFILLER_85_1121 VGND VGND VPWR VPWR sky130_fd_sc_hd__fill_2
X_21245_ _08074_ _08093_ VGND VGND VPWR VPWR _08111_ sky130_fd_sc_hd__xor2_1
XFILLER_117_783 VGND VGND VPWR VPWR sky130_fd_sc_hd__fill_1
XFILLER_105_923 VGND VGND VPWR VPWR sky130_fd_sc_hd__decap_3
XFILLER_163_399 VGND VGND VPWR VPWR sky130_fd_sc_hd__decap_8
XFILLER_172_1102 VGND VGND VPWR VPWR sky130_fd_sc_hd__decap_4
XFILLER_46_1105 VPWR VGND VPWR VGND sky130_ef_sc_hd__decap_12
XFILLER_89_111 VGND VGND VPWR VPWR sky130_fd_sc_hd__fill_1
XFILLER_172_1113 VGND VGND VPWR VPWR sky130_fd_sc_hd__decap_8
XTAP_TAPCELL_ROW_70_2310 VGND VPWR sky130_fd_sc_hd__tapvpwrvgnd_1
XTAP_TAPCELL_ROW_70_2321 VGND VPWR sky130_fd_sc_hd__tapvpwrvgnd_1
XFILLER_104_433 VGND VGND VPWR VPWR sky130_fd_sc_hd__decap_6
X_28841_ clknet_leaf_333_clk _02639_ net136 VGND VGND VPWR VPWR ser_C.shift_reg\[389\]
+ sky130_fd_sc_hd__dfrtp_1
X_21176_ _08000_ _08010_ _08008_ VGND VGND VPWR VPWR _08045_ sky130_fd_sc_hd__a21o_1
XFILLER_172_1146 VGND VGND VPWR VPWR sky130_fd_sc_hd__fill_2
XFILLER_104_477 VPWR VGND VPWR VGND sky130_ef_sc_hd__decap_12
X_20127_ net60 _07103_ VGND VGND VPWR VPWR _07104_ sky130_fd_sc_hd__nor2_1
XFILLER_132_797 VGND VGND VPWR VPWR sky130_fd_sc_hd__decap_6
XFILLER_120_937 VGND VGND VPWR VPWR sky130_fd_sc_hd__fill_1
X_28772_ clknet_leaf_295_clk _02570_ net138 VGND VGND VPWR VPWR ser_C.shift_reg\[320\]
+ sky130_fd_sc_hd__dfrtp_1
X_25984_ systolic_inst.acc_wires\[14\]\[12\] ser_C.parallel_data\[460\] net26 VGND
+ VGND VPWR VPWR _03286_ sky130_fd_sc_hd__mux2_1
XFILLER_218_301 VGND VGND VPWR VPWR sky130_fd_sc_hd__decap_6
X_27723_ clknet_leaf_190_clk _01521_ net146 VGND VGND VPWR VPWR systolic_inst.acc_wires\[7\]\[31\]
+ sky130_fd_sc_hd__dfrtp_1
X_20058_ systolic_inst.row_loop\[1\].col_loop\[2\].pe_i.prod_reg\[7\] systolic_inst.acc_wires\[6\]\[7\]
+ VGND VGND VPWR VPWR _07044_ sky130_fd_sc_hd__nand2_1
X_24935_ C_out\[294\] net102 net76 ser_C.shift_reg\[294\] _10937_ VGND VGND VPWR VPWR
+ _02544_ sky130_fd_sc_hd__a221o_1
XTAP_TAPCELL_ROW_107_3243 VGND VPWR sky130_fd_sc_hd__tapvpwrvgnd_1
XTAP_TAPCELL_ROW_107_3254 VGND VPWR sky130_fd_sc_hd__tapvpwrvgnd_1
XFILLER_133_54 VGND VGND VPWR VPWR sky130_fd_sc_hd__fill_2
XFILLER_18_406 VGND VGND VPWR VPWR sky130_fd_sc_hd__fill_1
XFILLER_111_1428 VGND VGND VPWR VPWR sky130_fd_sc_hd__decap_6
XFILLER_219_879 VPWR VGND VPWR VGND sky130_ef_sc_hd__decap_12
XTAP_TAPCELL_ROW_68_2250 VGND VPWR sky130_fd_sc_hd__tapvpwrvgnd_1
X_27654_ clknet_leaf_303_clk _01452_ net141 VGND VGND VPWR VPWR systolic_inst.acc_wires\[8\]\[26\]
+ sky130_fd_sc_hd__dfrtp_1
X_24866_ net110 ser_C.shift_reg\[261\] VGND VGND VPWR VPWR _10903_ sky130_fd_sc_hd__and2_1
XTAP_TAPCELL_ROW_68_2261 VGND VPWR sky130_fd_sc_hd__tapvpwrvgnd_1
XFILLER_172_3 VGND VGND VPWR VPWR sky130_fd_sc_hd__decap_6
X_26605_ clknet_leaf_16_B_in_serial_clk _00408_ net5 VGND VGND VPWR VPWR deser_B.word_buffer\[7\]
+ sky130_fd_sc_hd__dfrtp_1
X_23817_ _11258_ systolic_inst.acc_wires\[0\]\[18\] net64 _10415_ VGND VGND VPWR VPWR
+ _01948_ sky130_fd_sc_hd__a22o_1
XTAP_TAPCELL_ROW_1_560 VGND VPWR sky130_fd_sc_hd__tapvpwrvgnd_1
X_27585_ clknet_leaf_216_clk _01383_ net149 VGND VGND VPWR VPWR systolic_inst.acc_wires\[9\]\[21\]
+ sky130_fd_sc_hd__dfrtp_2
XFILLER_27_973 VGND VGND VPWR VPWR sky130_fd_sc_hd__fill_2
XFILLER_26_41 VPWR VGND VPWR VGND sky130_ef_sc_hd__decap_12
XFILLER_61_718 VGND VGND VPWR VPWR sky130_fd_sc_hd__decap_8
X_24797_ C_out\[225\] net99 net79 ser_C.shift_reg\[225\] _10868_ VGND VGND VPWR VPWR
+ _02475_ sky130_fd_sc_hd__a221o_1
XTAP_TAPCELL_ROW_64_2147 VGND VPWR sky130_fd_sc_hd__tapvpwrvgnd_1
XTAP_TAPCELL_ROW_64_2158 VGND VPWR sky130_fd_sc_hd__tapvpwrvgnd_1
X_29324_ clknet_leaf_304_clk _03122_ net138 VGND VGND VPWR VPWR C_out\[296\] sky130_fd_sc_hd__dfrtp_1
XFILLER_199_753 VPWR VGND VPWR VGND sky130_ef_sc_hd__decap_12
X_14550_ _11721_ _11722_ _11723_ VGND VGND VPWR VPWR _11725_ sky130_fd_sc_hd__and3_1
X_26536_ clknet_leaf_21_A_in_serial_clk _00339_ net137 VGND VGND VPWR VPWR deser_A.shift_reg\[66\]
+ sky130_fd_sc_hd__dfrtp_1
X_23748_ systolic_inst.row_loop\[0\].col_loop\[0\].pe_i.prod_reg\[8\] systolic_inst.acc_wires\[0\]\[8\]
+ _10353_ _10355_ VGND VGND VPWR VPWR _10356_ sky130_fd_sc_hd__a211o_1
XFILLER_148_1362 VGND VGND VPWR VPWR sky130_fd_sc_hd__decap_4
XFILLER_26_85 VPWR VGND VPWR VGND sky130_ef_sc_hd__decap_12
XFILLER_202_713 VGND VGND VPWR VPWR sky130_fd_sc_hd__decap_6
XFILLER_14_645 VGND VGND VPWR VPWR sky130_fd_sc_hd__decap_8
XFILLER_13_111 VGND VGND VPWR VPWR sky130_fd_sc_hd__fill_1
XFILLER_242_893 VGND VGND VPWR VPWR sky130_fd_sc_hd__decap_3
XFILLER_159_617 VPWR VGND VPWR VGND sky130_ef_sc_hd__decap_12
XFILLER_41_431 VGND VGND VPWR VPWR sky130_fd_sc_hd__decap_8
XFILLER_198_263 VGND VGND VPWR VPWR sky130_fd_sc_hd__decap_4
XFILLER_144_1226 VGND VGND VPWR VPWR sky130_fd_sc_hd__fill_1
X_13501_ deser_A.shift_reg\[65\] deser_A.shift_reg\[66\] net129 VGND VGND VPWR VPWR
+ _00338_ sky130_fd_sc_hd__mux2_1
XFILLER_199_797 VGND VGND VPWR VPWR sky130_fd_sc_hd__decap_8
XFILLER_187_937 VGND VGND VPWR VPWR sky130_fd_sc_hd__fill_2
X_29255_ clknet_leaf_197_clk _03053_ net147 VGND VGND VPWR VPWR C_out\[227\] sky130_fd_sc_hd__dfrtp_1
XFILLER_57_1289 VGND VGND VPWR VPWR sky130_fd_sc_hd__decap_8
XFILLER_92_1169 VGND VGND VPWR VPWR sky130_fd_sc_hd__decap_8
XFILLER_201_223 VGND VGND VPWR VPWR sky130_fd_sc_hd__fill_1
XFILLER_183_1297 VGND VGND VPWR VPWR sky130_fd_sc_hd__decap_4
XFILLER_42_987 VGND VGND VPWR VPWR sky130_fd_sc_hd__decap_6
X_26467_ clknet_leaf_346_clk deser_A.serial_toggle_sync1 net132 VGND VGND VPWR VPWR
+ deser_A.serial_toggle_sync2 sky130_fd_sc_hd__dfrtp_2
X_14481_ _11593_ _11630_ _11629_ VGND VGND VPWR VPWR _11662_ sky130_fd_sc_hd__a21bo_1
XFILLER_202_757 VGND VGND VPWR VPWR sky130_fd_sc_hd__fill_2
XFILLER_187_959 VGND VGND VPWR VPWR sky130_fd_sc_hd__decap_4
X_23679_ _10274_ _10276_ VGND VGND VPWR VPWR _10298_ sky130_fd_sc_hd__nor2_1
XFILLER_109_1379 VGND VGND VPWR VPWR sky130_fd_sc_hd__decap_6
X_28206_ clknet_leaf_94_clk _02004_ VGND VGND VPWR VPWR systolic_inst.B_shift\[9\]\[2\]
+ sky130_fd_sc_hd__dfxtp_1
XTAP_TAPCELL_ROW_23_1110 VGND VPWR sky130_fd_sc_hd__tapvpwrvgnd_1
X_16220_ _03602_ _03601_ VGND VGND VPWR VPWR _03603_ sky130_fd_sc_hd__nand2b_1
XFILLER_70_1423 VGND VGND VPWR VPWR sky130_fd_sc_hd__decap_4
XFILLER_224_1261 VPWR VGND VPWR VGND sky130_ef_sc_hd__decap_12
XFILLER_186_458 VGND VGND VPWR VPWR sky130_fd_sc_hd__decap_3
X_25418_ _11178_ systolic_inst.A_shift\[0\]\[0\] net71 VGND VGND VPWR VPWR _02786_
+ sky130_fd_sc_hd__mux2_1
XTAP_TAPCELL_ROW_23_1121 VGND VPWR sky130_fd_sc_hd__tapvpwrvgnd_1
XTAP_TAPCELL_ROW_12_824 VGND VPWR sky130_fd_sc_hd__tapvpwrvgnd_1
XFILLER_9_137 VPWR VGND VPWR VGND sky130_ef_sc_hd__decap_12
X_13432_ _11316_ VGND VGND VPWR VPWR _11317_ sky130_fd_sc_hd__inv_2
X_29186_ clknet_leaf_133_clk _02984_ net142 VGND VGND VPWR VPWR C_out\[158\] sky130_fd_sc_hd__dfrtp_1
XTAP_TAPCELL_ROW_12_835 VGND VPWR sky130_fd_sc_hd__tapvpwrvgnd_1
XFILLER_201_278 VGND VGND VPWR VPWR sky130_fd_sc_hd__fill_2
X_26398_ clknet_leaf_31_clk _00205_ net137 VGND VGND VPWR VPWR A_in\[66\] sky130_fd_sc_hd__dfrtp_1
XFILLER_173_108 VGND VGND VPWR VPWR sky130_fd_sc_hd__decap_4
XFILLER_127_503 VGND VGND VPWR VPWR sky130_fd_sc_hd__fill_1
X_28137_ clknet_leaf_126_clk _01935_ net144 VGND VGND VPWR VPWR systolic_inst.acc_wires\[0\]\[5\]
+ sky130_fd_sc_hd__dfrtp_1
XFILLER_6_811 VGND VGND VPWR VPWR sky130_fd_sc_hd__fill_1
X_16151_ _03526_ _03534_ VGND VGND VPWR VPWR _03536_ sky130_fd_sc_hd__xnor2_1
X_25349_ ser_C.parallel_data\[501\] net98 net78 ser_C.shift_reg\[501\] _11144_ VGND
+ VGND VPWR VPWR _02751_ sky130_fd_sc_hd__a221o_1