* NGSPICE file created from Systolic4x4_serial_io.ext - technology: sky130A

* Black-box entry subcircuit for sky130_fd_sc_hd__fill_1 abstract view
.subckt sky130_fd_sc_hd__fill_1 VGND VNB VPB VPWR
.ends

* Black-box entry subcircuit for sky130_ef_sc_hd__decap_12 abstract view
.subckt sky130_ef_sc_hd__decap_12 VPWR VGND VPB VNB
.ends

* Black-box entry subcircuit for sky130_fd_sc_hd__fill_2 abstract view
.subckt sky130_fd_sc_hd__fill_2 VGND VNB VPB VPWR
.ends

* Black-box entry subcircuit for sky130_fd_sc_hd__decap_3 abstract view
.subckt sky130_fd_sc_hd__decap_3 VGND VNB VPB VPWR
.ends

* Black-box entry subcircuit for sky130_fd_sc_hd__tapvpwrvgnd_1 abstract view
.subckt sky130_fd_sc_hd__tapvpwrvgnd_1 VGND VPWR
.ends

* Black-box entry subcircuit for sky130_fd_sc_hd__clkbuf_2 abstract view
.subckt sky130_fd_sc_hd__clkbuf_2 A VGND VNB VPB VPWR X
.ends

* Black-box entry subcircuit for sky130_fd_sc_hd__decap_4 abstract view
.subckt sky130_fd_sc_hd__decap_4 VGND VNB VPB VPWR
.ends

* Black-box entry subcircuit for sky130_fd_sc_hd__dlymetal6s2s_1 abstract view
.subckt sky130_fd_sc_hd__dlymetal6s2s_1 A VGND VNB VPB VPWR X
.ends

* Black-box entry subcircuit for sky130_fd_sc_hd__dfrtp_1 abstract view
.subckt sky130_fd_sc_hd__dfrtp_1 CLK D RESET_B VGND VNB VPB VPWR Q
.ends

* Black-box entry subcircuit for sky130_fd_sc_hd__mux2_1 abstract view
.subckt sky130_fd_sc_hd__mux2_1 A0 A1 S VGND VNB VPB VPWR X
.ends

* Black-box entry subcircuit for sky130_fd_sc_hd__mux2_4 abstract view
.subckt sky130_fd_sc_hd__mux2_4 A0 A1 S VGND VNB VPB VPWR X
.ends

* Black-box entry subcircuit for sky130_fd_sc_hd__decap_8 abstract view
.subckt sky130_fd_sc_hd__decap_8 VGND VNB VPB VPWR
.ends

* Black-box entry subcircuit for sky130_fd_sc_hd__mux2_2 abstract view
.subckt sky130_fd_sc_hd__mux2_2 A0 A1 S VGND VNB VPB VPWR X
.ends

* Black-box entry subcircuit for sky130_fd_sc_hd__and3_1 abstract view
.subckt sky130_fd_sc_hd__and3_1 A B C VGND VNB VPB VPWR X
.ends

* Black-box entry subcircuit for sky130_fd_sc_hd__clkbuf_8 abstract view
.subckt sky130_fd_sc_hd__clkbuf_8 A VGND VNB VPB VPWR X
.ends

* Black-box entry subcircuit for sky130_fd_sc_hd__clkbuf_16 abstract view
.subckt sky130_fd_sc_hd__clkbuf_16 A VGND VNB VPB VPWR X
.ends

* Black-box entry subcircuit for sky130_fd_sc_hd__and2b_1 abstract view
.subckt sky130_fd_sc_hd__and2b_1 A_N B VGND VNB VPB VPWR X
.ends

* Black-box entry subcircuit for sky130_fd_sc_hd__decap_6 abstract view
.subckt sky130_fd_sc_hd__decap_6 VGND VNB VPB VPWR
.ends

* Black-box entry subcircuit for sky130_fd_sc_hd__diode_2 abstract view
.subckt sky130_fd_sc_hd__diode_2 DIODE VGND VNB VPB VPWR
.ends

* Black-box entry subcircuit for sky130_fd_sc_hd__dlygate4sd1_1 abstract view
.subckt sky130_fd_sc_hd__dlygate4sd1_1 A VGND VNB VPB VPWR X
.ends

* Black-box entry subcircuit for sky130_fd_sc_hd__buf_8 abstract view
.subckt sky130_fd_sc_hd__buf_8 A VGND VNB VPB VPWR X
.ends

* Black-box entry subcircuit for sky130_fd_sc_hd__buf_1 abstract view
.subckt sky130_fd_sc_hd__buf_1 A VGND VNB VPB VPWR X
.ends

* Black-box entry subcircuit for sky130_fd_sc_hd__a31o_1 abstract view
.subckt sky130_fd_sc_hd__a31o_1 A1 A2 A3 B1 VGND VNB VPB VPWR X
.ends

* Black-box entry subcircuit for sky130_fd_sc_hd__xor2_1 abstract view
.subckt sky130_fd_sc_hd__xor2_1 A B VGND VNB VPB VPWR X
.ends

* Black-box entry subcircuit for sky130_fd_sc_hd__o21a_1 abstract view
.subckt sky130_fd_sc_hd__o21a_1 A1 A2 B1 VGND VNB VPB VPWR X
.ends

* Black-box entry subcircuit for sky130_fd_sc_hd__buf_2 abstract view
.subckt sky130_fd_sc_hd__buf_2 A VGND VNB VPB VPWR X
.ends

* Black-box entry subcircuit for sky130_fd_sc_hd__nand2_1 abstract view
.subckt sky130_fd_sc_hd__nand2_1 A B VGND VNB VPB VPWR Y
.ends

* Black-box entry subcircuit for sky130_fd_sc_hd__clkbuf_1 abstract view
.subckt sky130_fd_sc_hd__clkbuf_1 A VGND VNB VPB VPWR X
.ends

* Black-box entry subcircuit for sky130_fd_sc_hd__dfrtp_4 abstract view
.subckt sky130_fd_sc_hd__dfrtp_4 CLK D RESET_B VGND VNB VPB VPWR Q
.ends

* Black-box entry subcircuit for sky130_fd_sc_hd__nor2_1 abstract view
.subckt sky130_fd_sc_hd__nor2_1 A B VGND VNB VPB VPWR Y
.ends

* Black-box entry subcircuit for sky130_fd_sc_hd__and2_1 abstract view
.subckt sky130_fd_sc_hd__and2_1 A B VGND VNB VPB VPWR X
.ends

* Black-box entry subcircuit for sky130_fd_sc_hd__nand3_1 abstract view
.subckt sky130_fd_sc_hd__nand3_1 A B C VGND VNB VPB VPWR Y
.ends

* Black-box entry subcircuit for sky130_fd_sc_hd__buf_12 abstract view
.subckt sky130_fd_sc_hd__buf_12 A VGND VNB VPB VPWR X
.ends

* Black-box entry subcircuit for sky130_fd_sc_hd__inv_4 abstract view
.subckt sky130_fd_sc_hd__inv_4 A VGND VNB VPB VPWR Y
.ends

* Black-box entry subcircuit for sky130_fd_sc_hd__clkinv_4 abstract view
.subckt sky130_fd_sc_hd__clkinv_4 A VGND VNB VPB VPWR Y
.ends

* Black-box entry subcircuit for sky130_fd_sc_hd__and4_1 abstract view
.subckt sky130_fd_sc_hd__and4_1 A B C D VGND VNB VPB VPWR X
.ends

* Black-box entry subcircuit for sky130_fd_sc_hd__a21oi_1 abstract view
.subckt sky130_fd_sc_hd__a21oi_1 A1 A2 B1 VGND VNB VPB VPWR Y
.ends

* Black-box entry subcircuit for sky130_fd_sc_hd__a21o_1 abstract view
.subckt sky130_fd_sc_hd__a21o_1 A1 A2 B1 VGND VNB VPB VPWR X
.ends

* Black-box entry subcircuit for sky130_fd_sc_hd__clkinvlp_4 abstract view
.subckt sky130_fd_sc_hd__clkinvlp_4 A VGND VNB VPB VPWR Y
.ends

* Black-box entry subcircuit for sky130_fd_sc_hd__a21oi_2 abstract view
.subckt sky130_fd_sc_hd__a21oi_2 A1 A2 B1 VGND VNB VPB VPWR Y
.ends

* Black-box entry subcircuit for sky130_fd_sc_hd__inv_6 abstract view
.subckt sky130_fd_sc_hd__inv_6 A VGND VNB VPB VPWR Y
.ends

* Black-box entry subcircuit for sky130_fd_sc_hd__or2_4 abstract view
.subckt sky130_fd_sc_hd__or2_4 A B VGND VNB VPB VPWR X
.ends

* Black-box entry subcircuit for sky130_fd_sc_hd__clkinv_2 abstract view
.subckt sky130_fd_sc_hd__clkinv_2 A VGND VNB VPB VPWR Y
.ends

* Black-box entry subcircuit for sky130_fd_sc_hd__inv_2 abstract view
.subckt sky130_fd_sc_hd__inv_2 A VGND VNB VPB VPWR Y
.ends

* Black-box entry subcircuit for sky130_fd_sc_hd__o21ai_1 abstract view
.subckt sky130_fd_sc_hd__o21ai_1 A1 A2 B1 VGND VNB VPB VPWR Y
.ends

* Black-box entry subcircuit for sky130_fd_sc_hd__conb_1 abstract view
.subckt sky130_fd_sc_hd__conb_1 VGND VNB VPB VPWR HI LO
.ends

* Black-box entry subcircuit for sky130_fd_sc_hd__a41o_1 abstract view
.subckt sky130_fd_sc_hd__a41o_1 A1 A2 A3 A4 B1 VGND VNB VPB VPWR X
.ends

* Black-box entry subcircuit for sky130_fd_sc_hd__nor2_8 abstract view
.subckt sky130_fd_sc_hd__nor2_8 A B VGND VNB VPB VPWR Y
.ends

* Black-box entry subcircuit for sky130_fd_sc_hd__or4_1 abstract view
.subckt sky130_fd_sc_hd__or4_1 A B C D VGND VNB VPB VPWR X
.ends

* Black-box entry subcircuit for sky130_fd_sc_hd__bufinv_16 abstract view
.subckt sky130_fd_sc_hd__bufinv_16 A VGND VNB VPB VPWR Y
.ends

* Black-box entry subcircuit for sky130_fd_sc_hd__xnor2_1 abstract view
.subckt sky130_fd_sc_hd__xnor2_1 A B VGND VNB VPB VPWR Y
.ends

* Black-box entry subcircuit for sky130_fd_sc_hd__buf_6 abstract view
.subckt sky130_fd_sc_hd__buf_6 A VGND VNB VPB VPWR X
.ends

* Black-box entry subcircuit for sky130_fd_sc_hd__nand2b_4 abstract view
.subckt sky130_fd_sc_hd__nand2b_4 A_N B VGND VNB VPB VPWR Y
.ends

* Black-box entry subcircuit for sky130_fd_sc_hd__nor2_4 abstract view
.subckt sky130_fd_sc_hd__nor2_4 A B VGND VNB VPB VPWR Y
.ends

* Black-box entry subcircuit for sky130_fd_sc_hd__or3_1 abstract view
.subckt sky130_fd_sc_hd__or3_1 A B C VGND VNB VPB VPWR X
.ends

* Black-box entry subcircuit for sky130_fd_sc_hd__a22oi_1 abstract view
.subckt sky130_fd_sc_hd__a22oi_1 A1 A2 B1 B2 VGND VNB VPB VPWR Y
.ends

* Black-box entry subcircuit for sky130_fd_sc_hd__clkbuf_4 abstract view
.subckt sky130_fd_sc_hd__clkbuf_4 A VGND VNB VPB VPWR X
.ends

* Black-box entry subcircuit for sky130_fd_sc_hd__nand4_4 abstract view
.subckt sky130_fd_sc_hd__nand4_4 A B C D VGND VNB VPB VPWR Y
.ends

* Black-box entry subcircuit for sky130_fd_sc_hd__and2b_2 abstract view
.subckt sky130_fd_sc_hd__and2b_2 A_N B VGND VNB VPB VPWR X
.ends

* Black-box entry subcircuit for sky130_fd_sc_hd__or2_1 abstract view
.subckt sky130_fd_sc_hd__or2_1 A B VGND VNB VPB VPWR X
.ends

* Black-box entry subcircuit for sky130_fd_sc_hd__and2_4 abstract view
.subckt sky130_fd_sc_hd__and2_4 A B VGND VNB VPB VPWR X
.ends

* Black-box entry subcircuit for sky130_fd_sc_hd__a22oi_2 abstract view
.subckt sky130_fd_sc_hd__a22oi_2 A1 A2 B1 B2 VGND VNB VPB VPWR Y
.ends

* Black-box entry subcircuit for sky130_fd_sc_hd__a31oi_1 abstract view
.subckt sky130_fd_sc_hd__a31oi_1 A1 A2 A3 B1 VGND VNB VPB VPWR Y
.ends

* Black-box entry subcircuit for sky130_fd_sc_hd__nand2_2 abstract view
.subckt sky130_fd_sc_hd__nand2_2 A B VGND VNB VPB VPWR Y
.ends

* Black-box entry subcircuit for sky130_fd_sc_hd__a221o_1 abstract view
.subckt sky130_fd_sc_hd__a221o_1 A1 A2 B1 B2 C1 VGND VNB VPB VPWR X
.ends

* Black-box entry subcircuit for sky130_fd_sc_hd__and4_2 abstract view
.subckt sky130_fd_sc_hd__and4_2 A B C D VGND VNB VPB VPWR X
.ends

* Black-box entry subcircuit for sky130_fd_sc_hd__nor3_2 abstract view
.subckt sky130_fd_sc_hd__nor3_2 A B C VGND VNB VPB VPWR Y
.ends

* Black-box entry subcircuit for sky130_fd_sc_hd__buf_4 abstract view
.subckt sky130_fd_sc_hd__buf_4 A VGND VNB VPB VPWR X
.ends

* Black-box entry subcircuit for sky130_fd_sc_hd__o21ba_1 abstract view
.subckt sky130_fd_sc_hd__o21ba_1 A1 A2 B1_N VGND VNB VPB VPWR X
.ends

* Black-box entry subcircuit for sky130_fd_sc_hd__a21boi_1 abstract view
.subckt sky130_fd_sc_hd__a21boi_1 A1 A2 B1_N VGND VNB VPB VPWR Y
.ends

* Black-box entry subcircuit for sky130_fd_sc_hd__nand2b_2 abstract view
.subckt sky130_fd_sc_hd__nand2b_2 A_N B VGND VNB VPB VPWR Y
.ends

* Black-box entry subcircuit for sky130_fd_sc_hd__nor2_2 abstract view
.subckt sky130_fd_sc_hd__nor2_2 A B VGND VNB VPB VPWR Y
.ends

* Black-box entry subcircuit for sky130_fd_sc_hd__and3b_1 abstract view
.subckt sky130_fd_sc_hd__and3b_1 A_N B C VGND VNB VPB VPWR X
.ends

* Black-box entry subcircuit for sky130_fd_sc_hd__and4b_1 abstract view
.subckt sky130_fd_sc_hd__and4b_1 A_N B C D VGND VNB VPB VPWR X
.ends

* Black-box entry subcircuit for sky130_fd_sc_hd__o31a_1 abstract view
.subckt sky130_fd_sc_hd__o31a_1 A1 A2 A3 B1 VGND VNB VPB VPWR X
.ends

* Black-box entry subcircuit for sky130_fd_sc_hd__nor3_1 abstract view
.subckt sky130_fd_sc_hd__nor3_1 A B C VGND VNB VPB VPWR Y
.ends

* Black-box entry subcircuit for sky130_fd_sc_hd__dlymetal6s4s_1 abstract view
.subckt sky130_fd_sc_hd__dlymetal6s4s_1 A VGND VNB VPB VPWR X
.ends

.subckt Systolic4x4_serial_io A_in_frame_sync A_in_serial_clk A_in_serial_data B_in_frame_sync
+ B_in_serial_clk B_in_serial_data C_out_frame_sync C_out_serial_clk C_out_serial_data
+ VGND VPWR clk done rst_n start
XFILLER_52_29 VGND VGND VPWR VPWR sky130_fd_sc_hd__fill_1
XFILLER_60_206 VPWR VGND VPWR VGND sky130_ef_sc_hd__decap_12
XFILLER_45_225 VGND VGND VPWR VPWR sky130_fd_sc_hd__fill_2
XFILLER_13_111 VGND VGND VPWR VPWR sky130_fd_sc_hd__fill_1
XFILLER_13_133 VGND VGND VPWR VPWR sky130_fd_sc_hd__decap_3
XTAP_TAPCELL_ROW_51_470 VGND VPWR sky130_fd_sc_hd__tapvpwrvgnd_1
XFILLER_9_137 VPWR VGND VPWR VGND sky130_ef_sc_hd__decap_12
Xrebuffer7 net22 VGND VGND VPWR VPWR net23 sky130_fd_sc_hd__clkbuf_2
XFILLER_5_387 VGND VGND VPWR VPWR sky130_fd_sc_hd__fill_1
XFILLER_5_332 VGND VGND VPWR VPWR sky130_fd_sc_hd__decap_4
Xrebuffer481 _0415_ VGND VGND VPWR VPWR net497 sky130_fd_sc_hd__dlymetal6s2s_1
Xrebuffer492 _0416_ VGND VGND VPWR VPWR net508 sky130_fd_sc_hd__clkbuf_2
X_1270_ clknet_4_10_0_B_in_serial_clk _0217_ net15 VGND VGND VPWR VPWR deser_B.kept_shift_reg\[21\]
+ sky130_fd_sc_hd__dfrtp_1
XTAP_TAPCELL_ROW_8_192 VGND VPWR sky130_fd_sc_hd__tapvpwrvgnd_1
X_0985_ deser_B.kept_shift_reg\[104\] deser_B.kept_shift_reg\[105\] net845 VGND VGND
+ VPWR VPWR _0300_ sky130_fd_sc_hd__mux2_1
X_1399_ clknet_2_1__leaf_clk _0343_ net5 VGND VGND VPWR VPWR ser_C.kept_bit_idx\[6\]
+ sky130_fd_sc_hd__dfrtp_1
XTAP_TAPCELL_ROW_65_573 VGND VPWR sky130_fd_sc_hd__tapvpwrvgnd_1
XTAP_TAPCELL_ROW_65_562 VGND VPWR sky130_fd_sc_hd__tapvpwrvgnd_1
XFILLER_63_39 VPWR VGND VPWR VGND sky130_ef_sc_hd__decap_12
XFILLER_2_313 VGND VGND VPWR VPWR sky130_fd_sc_hd__fill_1
XFILLER_12_65 VPWR VGND VPWR VGND sky130_ef_sc_hd__decap_12
XFILLER_65_309 VGND VGND VPWR VPWR sky130_fd_sc_hd__fill_2
XTAP_TAPCELL_ROW_5_173 VGND VPWR sky130_fd_sc_hd__tapvpwrvgnd_1
X_0770_ deser_A.kept_shift_reg\[61\] deser_A.kept_shift_reg\[62\] net808 VGND VGND
+ VPWR VPWR _0113_ sky130_fd_sc_hd__mux2_4
XFILLER_56_309 VGND VGND VPWR VPWR sky130_fd_sc_hd__decap_4
X_1253_ clknet_4_12_0_B_in_serial_clk _0200_ net15 VGND VGND VPWR VPWR deser_B.kept_shift_reg\[4\]
+ sky130_fd_sc_hd__dfrtp_1
X_1322_ clknet_4_4_0_B_in_serial_clk _0269_ net15 VGND VGND VPWR VPWR deser_B.kept_shift_reg\[73\]
+ sky130_fd_sc_hd__dfrtp_1
XFILLER_5_184 VGND VGND VPWR VPWR sky130_fd_sc_hd__decap_8
XTAP_TAPCELL_ROW_19_264 VGND VPWR sky130_fd_sc_hd__tapvpwrvgnd_1
X_1184_ clknet_4_4_0_A_in_serial_clk _0132_ net14 VGND VGND VPWR VPWR deser_A.kept_shift_reg\[80\]
+ sky130_fd_sc_hd__dfrtp_1
XTAP_TAPCELL_ROW_62_543 VGND VPWR sky130_fd_sc_hd__tapvpwrvgnd_1
X_0968_ deser_B.kept_shift_reg\[87\] deser_B.kept_shift_reg\[88\] net10 VGND VGND
+ VPWR VPWR _0283_ sky130_fd_sc_hd__mux2_1
XFILLER_32_250 VGND VGND VPWR VPWR sky130_fd_sc_hd__fill_2
X_0899_ deser_B.kept_shift_reg\[18\] deser_B.kept_shift_reg\[19\] net11 VGND VGND
+ VPWR VPWR _0214_ sky130_fd_sc_hd__mux2_1
XTAP_TAPCELL_ROW_2_154 VGND VPWR sky130_fd_sc_hd__tapvpwrvgnd_1
XFILLER_55_386 VGND VGND VPWR VPWR sky130_fd_sc_hd__fill_2
XFILLER_38_309 VGND VGND VPWR VPWR sky130_fd_sc_hd__decap_4
XFILLER_2_165 VPWR VGND VPWR VGND sky130_ef_sc_hd__decap_12
XFILLER_2_121 VPWR VGND VPWR VGND sky130_ef_sc_hd__decap_12
XFILLER_0_57 VPWR VGND VPWR VGND sky130_ef_sc_hd__decap_12
XFILLER_9_55 VGND VGND VPWR VPWR sky130_fd_sc_hd__fill_1
XTAP_TAPCELL_ROW_16_245 VGND VPWR sky130_fd_sc_hd__tapvpwrvgnd_1
X_0822_ deser_A.kept_shift_reg\[113\] deser_A.kept_shift_reg\[114\] net735 VGND VGND
+ VPWR VPWR _0165_ sky130_fd_sc_hd__mux2_4
XFILLER_50_3 VGND VGND VPWR VPWR sky130_fd_sc_hd__decap_4
X_0753_ deser_A.kept_shift_reg\[44\] deser_A.kept_shift_reg\[45\] net730 VGND VGND
+ VPWR VPWR _0096_ sky130_fd_sc_hd__mux2_2
X_0684_ _0511_ _0501_ _0417_ VGND VGND VPWR VPWR _0043_ sky130_fd_sc_hd__and3_1
XFILLER_56_139 VGND VGND VPWR VPWR sky130_fd_sc_hd__fill_1
X_1236_ clknet_4_12_0_B_in_serial_clk _0184_ net15 VGND VGND VPWR VPWR deser_B.bit_idx\[4\]
+ sky130_fd_sc_hd__dfrtp_1
X_1305_ clknet_4_0_0_B_in_serial_clk _0252_ net15 VGND VGND VPWR VPWR deser_B.kept_shift_reg\[56\]
+ sky130_fd_sc_hd__dfrtp_1
Xclkbuf_4_6_0_A_in_serial_clk clknet_0_A_in_serial_clk VGND VGND VPWR VPWR clknet_4_6_0_A_in_serial_clk
+ sky130_fd_sc_hd__clkbuf_8
XFILLER_52_356 VGND VGND VPWR VPWR sky130_fd_sc_hd__decap_8
X_1167_ clknet_4_15_0_A_in_serial_clk _0115_ net14 VGND VGND VPWR VPWR deser_A.kept_shift_reg\[63\]
+ sky130_fd_sc_hd__dfrtp_1
Xclone793 net24 VGND VGND VPWR VPWR net809 sky130_fd_sc_hd__clkbuf_16
X_1098_ clknet_4_9_0_A_in_serial_clk _0047_ net14 VGND VGND VPWR VPWR deser_A.kept_bit_idx\[2\]
+ sky130_fd_sc_hd__dfrtp_1
XFILLER_60_29 VPWR VGND VPWR VGND sky130_ef_sc_hd__decap_12
XFILLER_62_109 VGND VGND VPWR VPWR sky130_fd_sc_hd__decap_3
XFILLER_18_53 VPWR VGND VPWR VGND sky130_ef_sc_hd__decap_12
XFILLER_18_97 VPWR VGND VPWR VGND sky130_ef_sc_hd__decap_12
XTAP_TAPCELL_ROW_13_226 VGND VPWR sky130_fd_sc_hd__tapvpwrvgnd_1
XFILLER_59_93 VPWR VGND VPWR VGND sky130_ef_sc_hd__decap_12
XFILLER_46_161 VGND VGND VPWR VPWR sky130_fd_sc_hd__decap_4
X_1021_ ser_C.bit_idx\[3\] ser_C.bit_idx\[4\] _0379_ VGND VGND VPWR VPWR _0381_ sky130_fd_sc_hd__and3_1
X_0805_ deser_A.kept_shift_reg\[96\] deser_A.kept_shift_reg\[97\] net734 VGND VGND
+ VPWR VPWR _0148_ sky130_fd_sc_hd__mux2_4
X_0598_ _0451_ _0452_ systolic_inst.cycle_cnt\[10\] VGND VGND VPWR VPWR _0015_ sky130_fd_sc_hd__mux2_1
X_0667_ net22 net1 VGND VGND VPWR VPWR _0500_ sky130_fd_sc_hd__and2b_1
X_0736_ deser_A.kept_shift_reg\[27\] deser_A.kept_shift_reg\[28\] net17 VGND VGND
+ VPWR VPWR _0079_ sky130_fd_sc_hd__mux2_1
XFILLER_37_161 VGND VGND VPWR VPWR sky130_fd_sc_hd__decap_6
X_1219_ clknet_4_1_0_A_in_serial_clk _0167_ net14 VGND VGND VPWR VPWR deser_A.kept_shift_reg\[115\]
+ sky130_fd_sc_hd__dfrtp_1
XTAP_TAPCELL_ROW_27_318 VGND VPWR sky130_fd_sc_hd__tapvpwrvgnd_1
Xrebuffer800 _0363_ VGND VGND VPWR VPWR net816 sky130_fd_sc_hd__dlymetal6s2s_1
XFILLER_52_153 VGND VGND VPWR VPWR sky130_fd_sc_hd__decap_3
XTAP_TAPCELL_ROW_10_207 VGND VPWR sky130_fd_sc_hd__tapvpwrvgnd_1
XFILLER_4_238 VPWR VGND VPWR VGND sky130_ef_sc_hd__decap_12
XFILLER_20_65 VPWR VGND VPWR VGND sky130_ef_sc_hd__decap_12
Xclkbuf_4_14_0_A_in_serial_clk clknet_0_A_in_serial_clk VGND VGND VPWR VPWR clknet_4_14_0_A_in_serial_clk
+ sky130_fd_sc_hd__clkbuf_8
XFILLER_45_84 VPWR VGND VPWR VGND sky130_ef_sc_hd__decap_12
XFILLER_45_62 VGND VGND VPWR VPWR sky130_fd_sc_hd__fill_1
XFILLER_16_301 VGND VGND VPWR VPWR sky130_fd_sc_hd__decap_6
XFILLER_31_337 VPWR VGND VPWR VGND sky130_ef_sc_hd__decap_12
XANTENNA_5 net15 VGND VGND VPWR VPWR sky130_fd_sc_hd__diode_2
XFILLER_3_293 VGND VGND VPWR VPWR sky130_fd_sc_hd__decap_4
Xrebuffer17 _0363_ VGND VGND VPWR VPWR net33 sky130_fd_sc_hd__dlygate4sd1_1
XFILLER_13_3 VPWR VGND VPWR VGND sky130_ef_sc_hd__decap_12
Xrebuffer28 net739 VGND VGND VPWR VPWR net44 sky130_fd_sc_hd__buf_8
X_1004_ deser_B.kept_shift_reg\[123\] deser_B.kept_shift_reg\[124\] net27 VGND VGND
+ VPWR VPWR _0319_ sky130_fd_sc_hd__mux2_1
XFILLER_34_197 VPWR VGND VPWR VGND sky130_ef_sc_hd__decap_12
X_0719_ deser_A.kept_shift_reg\[10\] deser_A.kept_shift_reg\[11\] net18 VGND VGND
+ VPWR VPWR _0062_ sky130_fd_sc_hd__mux2_4
XFILLER_13_337 VGND VGND VPWR VPWR sky130_fd_sc_hd__fill_2
XFILLER_31_97 VPWR VGND VPWR VGND sky130_ef_sc_hd__decap_12
Xoutput7 net7 VGND VGND VPWR VPWR C_out_frame_sync sky130_fd_sc_hd__buf_1
Xclkbuf_4_7_0_B_in_serial_clk clknet_0_B_in_serial_clk VGND VGND VPWR VPWR clknet_4_7_0_B_in_serial_clk
+ sky130_fd_sc_hd__clkbuf_8
XFILLER_56_83 VGND VGND VPWR VPWR sky130_fd_sc_hd__fill_1
XTAP_TAPCELL_ROW_54_490 VGND VPWR sky130_fd_sc_hd__tapvpwrvgnd_1
XFILLER_31_167 VGND VGND VPWR VPWR sky130_fd_sc_hd__fill_1
XFILLER_16_153 VPWR VGND VPWR VGND sky130_ef_sc_hd__decap_12
XFILLER_8_385 VGND VGND VPWR VPWR sky130_fd_sc_hd__decap_3
XFILLER_12_381 VGND VGND VPWR VPWR sky130_fd_sc_hd__decap_6
XFILLER_54_248 VGND VGND VPWR VPWR sky130_fd_sc_hd__decap_4
XFILLER_60_218 VPWR VGND VPWR VGND sky130_ef_sc_hd__decap_12
XFILLER_9_105 VGND VGND VPWR VPWR sky130_fd_sc_hd__decap_6
XFILLER_13_156 VGND VGND VPWR VPWR sky130_fd_sc_hd__fill_1
XFILLER_26_75 VGND VGND VPWR VPWR sky130_fd_sc_hd__decap_3
XTAP_TAPCELL_ROW_51_471 VGND VPWR sky130_fd_sc_hd__tapvpwrvgnd_1
XFILLER_42_85 VGND VGND VPWR VPWR sky130_fd_sc_hd__decap_8
Xrebuffer493 _0417_ VGND VGND VPWR VPWR net509 sky130_fd_sc_hd__buf_1
XFILLER_9_149 VGND VGND VPWR VPWR sky130_fd_sc_hd__fill_2
Xrebuffer8 net22 VGND VGND VPWR VPWR net24 sky130_fd_sc_hd__buf_8
XFILLER_47_9 VGND VGND VPWR VPWR sky130_fd_sc_hd__fill_1
XFILLER_3_57 VPWR VGND VPWR VGND sky130_ef_sc_hd__decap_12
XTAP_TAPCELL_ROW_8_193 VGND VPWR sky130_fd_sc_hd__tapvpwrvgnd_1
X_0984_ deser_B.kept_shift_reg\[103\] deser_B.kept_shift_reg\[104\] net47 VGND VGND
+ VPWR VPWR _0299_ sky130_fd_sc_hd__mux2_1
Xclkbuf_4_15_0_B_in_serial_clk clknet_0_B_in_serial_clk VGND VGND VPWR VPWR clknet_4_15_0_B_in_serial_clk
+ sky130_fd_sc_hd__clkbuf_8
X_1398_ clknet_2_1__leaf_clk _0342_ net5 VGND VGND VPWR VPWR ser_C.kept_bit_idx\[5\]
+ sky130_fd_sc_hd__dfrtp_1
XTAP_TAPCELL_ROW_65_563 VGND VPWR sky130_fd_sc_hd__tapvpwrvgnd_1
XFILLER_50_251 VGND VGND VPWR VPWR sky130_fd_sc_hd__fill_1
XFILLER_35_281 VPWR VGND VPWR VGND sky130_ef_sc_hd__decap_12
XFILLER_12_77 VGND VGND VPWR VPWR sky130_fd_sc_hd__decap_6
XFILLER_2_358 VGND VGND VPWR VPWR sky130_fd_sc_hd__decap_6
XFILLER_58_362 VGND VGND VPWR VPWR sky130_fd_sc_hd__fill_2
XTAP_TAPCELL_ROW_5_174 VGND VPWR sky130_fd_sc_hd__tapvpwrvgnd_1
XFILLER_18_259 VGND VGND VPWR VPWR sky130_fd_sc_hd__fill_1
XFILLER_53_51 VGND VGND VPWR VPWR sky130_fd_sc_hd__decap_4
X_1252_ clknet_4_13_0_B_in_serial_clk _0199_ net15 VGND VGND VPWR VPWR deser_B.kept_shift_reg\[3\]
+ sky130_fd_sc_hd__dfrtp_1
X_1321_ clknet_4_1_0_B_in_serial_clk _0268_ net15 VGND VGND VPWR VPWR deser_B.kept_shift_reg\[72\]
+ sky130_fd_sc_hd__dfrtp_1
XFILLER_64_365 VPWR VGND VPWR VGND sky130_ef_sc_hd__decap_12
XTAP_TAPCELL_ROW_62_544 VGND VPWR sky130_fd_sc_hd__tapvpwrvgnd_1
XFILLER_17_281 VGND VGND VPWR VPWR sky130_fd_sc_hd__decap_3
X_1183_ clknet_4_6_0_A_in_serial_clk _0131_ net14 VGND VGND VPWR VPWR deser_A.kept_shift_reg\[79\]
+ sky130_fd_sc_hd__dfrtp_1
XTAP_TAPCELL_ROW_19_265 VGND VPWR sky130_fd_sc_hd__tapvpwrvgnd_1
X_0967_ deser_B.kept_shift_reg\[86\] deser_B.kept_shift_reg\[87\] net10 VGND VGND
+ VPWR VPWR _0282_ sky130_fd_sc_hd__mux2_1
XFILLER_58_29 VPWR VGND VPWR VGND sky130_ef_sc_hd__decap_12
X_0898_ deser_B.kept_shift_reg\[17\] deser_B.kept_shift_reg\[18\] net640 VGND VGND
+ VPWR VPWR _0213_ sky130_fd_sc_hd__mux2_4
XPHY_EDGE_ROW_12_Right_12 VGND VGND VPWR VPWR sky130_fd_sc_hd__decap_3
XTAP_TAPCELL_ROW_2_155 VGND VPWR sky130_fd_sc_hd__tapvpwrvgnd_1
XPHY_EDGE_ROW_21_Right_21 VGND VGND VPWR VPWR sky130_fd_sc_hd__decap_3
XFILLER_23_21 VGND VGND VPWR VPWR sky130_fd_sc_hd__fill_1
XFILLER_23_273 VGND VGND VPWR VPWR sky130_fd_sc_hd__decap_6
XPHY_EDGE_ROW_30_Right_30 VGND VGND VPWR VPWR sky130_fd_sc_hd__decap_3
XFILLER_2_177 VPWR VGND VPWR VGND sky130_ef_sc_hd__decap_12
XFILLER_2_133 VGND VGND VPWR VPWR sky130_fd_sc_hd__decap_6
XFILLER_64_83 VGND VGND VPWR VPWR sky130_fd_sc_hd__fill_1
XFILLER_46_365 VPWR VGND VPWR VGND sky130_ef_sc_hd__decap_12
XFILLER_0_69 VPWR VGND VPWR VGND sky130_ef_sc_hd__decap_12
XTAP_TAPCELL_ROW_16_246 VGND VPWR sky130_fd_sc_hd__tapvpwrvgnd_1
XFILLER_14_273 VGND VGND VPWR VPWR sky130_fd_sc_hd__decap_8
X_0821_ deser_A.kept_shift_reg\[112\] deser_A.kept_shift_reg\[113\] net12 VGND VGND
+ VPWR VPWR _0164_ sky130_fd_sc_hd__mux2_1
X_0752_ deser_A.kept_shift_reg\[43\] deser_A.kept_shift_reg\[44\] net728 VGND VGND
+ VPWR VPWR _0095_ sky130_fd_sc_hd__mux2_2
XFILLER_43_3 VPWR VGND VPWR VGND sky130_ef_sc_hd__decap_12
X_0683_ _0420_ net508 deser_A.bit_idx\[5\] deser_A.bit_idx\[6\] VGND VGND VPWR VPWR
+ _0511_ sky130_fd_sc_hd__a31o_1
X_1235_ clknet_4_13_0_B_in_serial_clk _0183_ net15 VGND VGND VPWR VPWR deser_B.bit_idx\[3\]
+ sky130_fd_sc_hd__dfrtp_1
X_1304_ clknet_4_2_0_B_in_serial_clk _0251_ net15 VGND VGND VPWR VPWR deser_B.kept_shift_reg\[55\]
+ sky130_fd_sc_hd__dfrtp_1
X_1166_ clknet_4_15_0_A_in_serial_clk _0114_ net14 VGND VGND VPWR VPWR deser_A.kept_shift_reg\[62\]
+ sky130_fd_sc_hd__dfrtp_1
XFILLER_64_195 VGND VGND VPWR VPWR sky130_fd_sc_hd__fill_1
XFILLER_52_302 VGND VGND VPWR VPWR sky130_fd_sc_hd__decap_6
XFILLER_37_387 VGND VGND VPWR VPWR sky130_fd_sc_hd__fill_1
X_1097_ clknet_4_10_0_A_in_serial_clk _0046_ net14 VGND VGND VPWR VPWR deser_A.kept_bit_idx\[1\]
+ sky130_fd_sc_hd__dfrtp_1
XFILLER_20_265 VPWR VGND VPWR VGND sky130_ef_sc_hd__decap_12
XFILLER_43_357 VPWR VGND VPWR VGND sky130_ef_sc_hd__decap_12
XFILLER_18_65 VPWR VGND VPWR VGND sky130_ef_sc_hd__decap_12
XFILLER_28_365 VPWR VGND VPWR VGND sky130_ef_sc_hd__decap_12
XFILLER_11_254 VGND VGND VPWR VPWR sky130_fd_sc_hd__decap_8
XTAP_TAPCELL_ROW_13_227 VGND VPWR sky130_fd_sc_hd__tapvpwrvgnd_1
XFILLER_50_85 VGND VGND VPWR VPWR sky130_fd_sc_hd__decap_4
X_1020_ ser_C.bit_idx\[3\] _0379_ VGND VGND VPWR VPWR _0329_ sky130_fd_sc_hd__xor2_1
XFILLER_46_195 VGND VGND VPWR VPWR sky130_fd_sc_hd__fill_1
XFILLER_19_387 VGND VGND VPWR VPWR sky130_fd_sc_hd__fill_1
X_0804_ deser_A.kept_shift_reg\[95\] deser_A.kept_shift_reg\[96\] net12 VGND VGND
+ VPWR VPWR _0147_ sky130_fd_sc_hd__mux2_1
X_0735_ deser_A.kept_shift_reg\[26\] deser_A.kept_shift_reg\[27\] net808 VGND VGND
+ VPWR VPWR _0078_ sky130_fd_sc_hd__mux2_4
X_0597_ systolic_inst.cycle_cnt\[9\] _0453_ _0452_ VGND VGND VPWR VPWR _0014_ sky130_fd_sc_hd__o21a_1
X_0666_ net17 _0419_ net491 VGND VGND VPWR VPWR _0037_ sky130_fd_sc_hd__mux2_1
XFILLER_52_121 VGND VGND VPWR VPWR sky130_fd_sc_hd__decap_6
X_1149_ clknet_4_7_0_A_in_serial_clk _0097_ net14 VGND VGND VPWR VPWR deser_A.kept_shift_reg\[45\]
+ sky130_fd_sc_hd__dfrtp_1
X_1218_ clknet_4_4_0_A_in_serial_clk _0166_ net14 VGND VGND VPWR VPWR deser_A.kept_shift_reg\[114\]
+ sky130_fd_sc_hd__dfrtp_1
XFILLER_25_346 VGND VGND VPWR VPWR sky130_fd_sc_hd__decap_3
XTAP_TAPCELL_ROW_27_319 VGND VPWR sky130_fd_sc_hd__tapvpwrvgnd_1
XFILLER_40_338 VGND VGND VPWR VPWR sky130_fd_sc_hd__decap_6
XTAP_TAPCELL_ROW_10_208 VGND VPWR sky130_fd_sc_hd__tapvpwrvgnd_1
XFILLER_20_77 VGND VGND VPWR VPWR sky130_fd_sc_hd__decap_6
XFILLER_31_349 VGND VGND VPWR VPWR sky130_fd_sc_hd__decap_8
XFILLER_61_51 VGND VGND VPWR VPWR sky130_fd_sc_hd__decap_4
XANTENNA_6 net15 VGND VGND VPWR VPWR sky130_fd_sc_hd__diode_2
XFILLER_3_261 VPWR VGND VPWR VGND sky130_ef_sc_hd__decap_12
X_1003_ deser_B.kept_shift_reg\[122\] deser_B.kept_shift_reg\[123\] net847 VGND VGND
+ VPWR VPWR _0318_ sky130_fd_sc_hd__mux2_1
Xrebuffer18 deser_B.receiving VGND VGND VPWR VPWR net34 sky130_fd_sc_hd__buf_8
XFILLER_22_305 VGND VGND VPWR VPWR sky130_fd_sc_hd__decap_3
XPHY_EDGE_ROW_6_Right_6 VGND VGND VPWR VPWR sky130_fd_sc_hd__decap_3
X_0718_ deser_A.kept_shift_reg\[9\] deser_A.kept_shift_reg\[10\] net25 VGND VGND VPWR
+ VPWR _0061_ sky130_fd_sc_hd__mux2_2
X_0649_ systolic_inst.cycle_cnt\[26\] _0483_ _0486_ VGND VGND VPWR VPWR _0489_ sky130_fd_sc_hd__and3_1
XFILLER_57_279 VGND VGND VPWR VPWR sky130_fd_sc_hd__fill_1
XFILLER_15_55 VGND VGND VPWR VPWR sky130_fd_sc_hd__fill_1
XFILLER_21_371 VPWR VGND VPWR VGND sky130_ef_sc_hd__decap_12
Xoutput8 net8 VGND VGND VPWR VPWR C_out_serial_clk sky130_fd_sc_hd__buf_1
XFILLER_0_253 VPWR VGND VPWR VGND sky130_ef_sc_hd__decap_12
XFILLER_16_121 VPWR VGND VPWR VGND sky130_ef_sc_hd__decap_12
XPHY_EDGE_ROW_59_Right_59 VGND VGND VPWR VPWR sky130_fd_sc_hd__decap_3
XTAP_TAPCELL_ROW_54_491 VGND VPWR sky130_fd_sc_hd__tapvpwrvgnd_1
XFILLER_31_113 VPWR VGND VPWR VGND sky130_ef_sc_hd__decap_12
XFILLER_8_320 VGND VGND VPWR VPWR sky130_fd_sc_hd__decap_4
XTAP_TAPCELL_ROW_51_472 VGND VPWR sky130_fd_sc_hd__tapvpwrvgnd_1
XFILLER_13_113 VPWR VGND VPWR VGND sky130_ef_sc_hd__decap_12
XFILLER_26_43 VGND VGND VPWR VPWR sky130_fd_sc_hd__fill_1
Xrebuffer483 _0347_ VGND VGND VPWR VPWR net499 sky130_fd_sc_hd__clkbuf_2
XFILLER_5_301 VGND VGND VPWR VPWR sky130_fd_sc_hd__decap_8
Xrebuffer9 net24 VGND VGND VPWR VPWR net25 sky130_fd_sc_hd__dlymetal6s2s_1
XFILLER_3_69 VPWR VGND VPWR VGND sky130_ef_sc_hd__decap_12
XTAP_TAPCELL_ROW_8_194 VGND VPWR sky130_fd_sc_hd__tapvpwrvgnd_1
X_0983_ deser_B.kept_shift_reg\[102\] deser_B.kept_shift_reg\[103\] net10 VGND VGND
+ VPWR VPWR _0298_ sky130_fd_sc_hd__mux2_1
XTAP_TAPCELL_ROW_57_509 VGND VPWR sky130_fd_sc_hd__tapvpwrvgnd_1
X_1397_ clknet_2_1__leaf_clk _0341_ net5 VGND VGND VPWR VPWR ser_C.kept_bit_idx\[4\]
+ sky130_fd_sc_hd__dfrtp_1
XTAP_TAPCELL_ROW_65_564 VGND VPWR sky130_fd_sc_hd__tapvpwrvgnd_1
XFILLER_35_293 VGND VGND VPWR VPWR sky130_fd_sc_hd__fill_1
XPHY_EDGE_ROW_19_Left_85 VGND VGND VPWR VPWR sky130_fd_sc_hd__decap_3
XFILLER_6_109 VPWR VGND VPWR VGND sky130_ef_sc_hd__decap_12
XFILLER_37_42 VGND VGND VPWR VPWR sky130_fd_sc_hd__fill_2
XTAP_TAPCELL_ROW_5_175 VGND VPWR sky130_fd_sc_hd__tapvpwrvgnd_1
XFILLER_41_274 VGND VGND VPWR VPWR sky130_fd_sc_hd__decap_6
X_1320_ clknet_4_1_0_B_in_serial_clk _0267_ net15 VGND VGND VPWR VPWR deser_B.kept_shift_reg\[71\]
+ sky130_fd_sc_hd__dfrtp_1
X_1251_ clknet_4_13_0_B_in_serial_clk _0198_ net15 VGND VGND VPWR VPWR deser_B.kept_shift_reg\[2\]
+ sky130_fd_sc_hd__dfrtp_1
XFILLER_1_381 VGND VGND VPWR VPWR sky130_fd_sc_hd__decap_6
X_1182_ clknet_4_6_0_A_in_serial_clk _0130_ net14 VGND VGND VPWR VPWR deser_A.kept_shift_reg\[78\]
+ sky130_fd_sc_hd__dfrtp_1
XFILLER_64_377 VGND VGND VPWR VPWR sky130_fd_sc_hd__decap_8
XTAP_TAPCELL_ROW_62_545 VGND VPWR sky130_fd_sc_hd__tapvpwrvgnd_1
XTAP_TAPCELL_ROW_19_266 VGND VPWR sky130_fd_sc_hd__tapvpwrvgnd_1
X_0966_ deser_B.kept_shift_reg\[85\] deser_B.kept_shift_reg\[86\] net47 VGND VGND
+ VPWR VPWR _0281_ sky130_fd_sc_hd__mux2_1
X_0897_ deser_B.kept_shift_reg\[16\] deser_B.kept_shift_reg\[17\] net11 VGND VGND
+ VPWR VPWR _0212_ sky130_fd_sc_hd__mux2_1
XFILLER_59_105 VGND VGND VPWR VPWR sky130_fd_sc_hd__decap_6
XTAP_TAPCELL_ROW_2_156 VGND VPWR sky130_fd_sc_hd__tapvpwrvgnd_1
XFILLER_3_3 VPWR VGND VPWR VGND sky130_ef_sc_hd__decap_12
XFILLER_48_85 VPWR VGND VPWR VGND sky130_ef_sc_hd__decap_12
XFILLER_48_41 VGND VGND VPWR VPWR sky130_fd_sc_hd__decap_8
XFILLER_2_189 VGND VGND VPWR VPWR sky130_fd_sc_hd__decap_6
XFILLER_0_15 VPWR VGND VPWR VGND sky130_ef_sc_hd__decap_12
XFILLER_46_377 VGND VGND VPWR VPWR sky130_fd_sc_hd__decap_8
XTAP_TAPCELL_ROW_16_247 VGND VPWR sky130_fd_sc_hd__tapvpwrvgnd_1
XFILLER_9_57 VPWR VGND VPWR VGND sky130_ef_sc_hd__decap_12
X_0820_ deser_A.kept_shift_reg\[111\] deser_A.kept_shift_reg\[112\] net730 VGND VGND
+ VPWR VPWR _0163_ sky130_fd_sc_hd__mux2_4
X_0751_ deser_A.kept_shift_reg\[42\] deser_A.kept_shift_reg\[43\] net12 VGND VGND
+ VPWR VPWR _0094_ sky130_fd_sc_hd__mux2_1
X_1303_ clknet_4_2_0_B_in_serial_clk _0250_ net15 VGND VGND VPWR VPWR deser_B.kept_shift_reg\[54\]
+ sky130_fd_sc_hd__dfrtp_1
X_0682_ _0501_ _0510_ _0509_ VGND VGND VPWR VPWR _0042_ sky130_fd_sc_hd__and3_1
XFILLER_64_174 VGND VGND VPWR VPWR sky130_fd_sc_hd__fill_1
XFILLER_64_141 VGND VGND VPWR VPWR sky130_fd_sc_hd__decap_6
X_1234_ clknet_4_13_0_B_in_serial_clk _0182_ net15 VGND VGND VPWR VPWR deser_B.bit_idx\[2\]
+ sky130_fd_sc_hd__dfrtp_1
X_1165_ clknet_4_15_0_A_in_serial_clk _0113_ net14 VGND VGND VPWR VPWR deser_A.kept_shift_reg\[61\]
+ sky130_fd_sc_hd__dfrtp_1
X_1096_ clknet_4_8_0_A_in_serial_clk _0045_ net14 VGND VGND VPWR VPWR deser_A.kept_bit_idx\[0\]
+ sky130_fd_sc_hd__dfrtp_1
X_0949_ deser_B.kept_shift_reg\[68\] deser_B.kept_shift_reg\[69\] net10 VGND VGND
+ VPWR VPWR _0264_ sky130_fd_sc_hd__mux2_1
XFILLER_20_277 VPWR VGND VPWR VGND sky130_ef_sc_hd__decap_12