*SPEF "ieee 1481-1999"
*DESIGN "Systolic4x4_serial_io"
*DATE "22:20:38 Sunday September 14, 2025"
*VENDOR "The OpenROAD Project"
*PROGRAM "OpenROAD"
*VERSION "edf00dff99f6c40d67a30c0e22a8191c5d2ed9d6"
*DESIGN_FLOW "NAME_SCOPE LOCAL" "PIN_CAP NONE"
*DIVIDER /
*DELIMITER :
*BUS_DELIMITER []
*T_UNIT 1 NS
*C_UNIT 1 PF
*R_UNIT 1 OHM
*L_UNIT 1 HENRY

*NAME_MAP
*1 A_in_frame_sync
*2 A_in_serial_clk
*3 A_in_serial_data
*4 B_in_frame_sync
*5 B_in_serial_clk
*6 B_in_serial_data
*7 C_out_frame_sync
*8 C_out_serial_clk
*9 net16
*12 clk
*13 done
*14 rst_n
*15 start
*16 _0000_
*17 _0001_
*18 _0002_
*19 _0003_
*20 _0004_
*21 _0005_
*22 _0006_
*23 _0007_
*24 _0008_
*25 _0009_
*26 _0010_
*27 _0011_
*28 _0012_
*29 _0013_
*30 _0014_
*31 _0015_
*32 _0016_
*33 _0017_
*34 _0018_
*35 _0019_
*36 _0020_
*37 _0021_
*38 _0022_
*39 _0023_
*40 _0024_
*41 _0025_
*42 _0026_
*43 _0027_
*44 _0028_
*45 _0029_
*46 _0030_
*47 _0031_
*48 _0032_
*49 _0033_
*50 _0034_
*51 _0035_
*52 _0036_
*53 _0037_
*54 _0038_
*55 _0039_
*56 _0040_
*57 _0041_
*58 _0042_
*59 _0043_
*60 _0044_
*61 _0045_
*62 _0046_
*63 _0047_
*64 _0048_
*65 _0049_
*66 _0050_
*67 _0051_
*68 _0052_
*69 _0053_
*70 _0054_
*71 _0055_
*72 _0056_
*73 _0057_
*74 _0058_
*75 _0059_
*76 _0060_
*77 _0061_
*78 _0062_
*79 _0063_
*80 _0064_
*81 _0065_
*82 _0066_
*83 _0067_
*84 _0068_
*85 _0069_
*86 _0070_
*87 _0071_
*88 _0072_
*89 _0073_
*90 _0074_
*91 _0075_
*92 _0076_
*93 _0077_
*94 _0078_
*95 _0079_
*96 _0080_
*97 _0081_
*98 _0082_
*99 _0083_
*100 _0084_
*101 _0085_
*102 _0086_
*103 _0087_
*104 _0088_
*105 _0089_
*106 _0090_
*107 _0091_
*108 _0092_
*109 _0093_
*110 _0094_
*111 _0095_
*112 _0096_
*113 _0097_
*114 _0098_
*115 _0099_
*116 _0100_
*117 _0101_
*118 _0102_
*119 _0103_
*120 _0104_
*121 _0105_
*122 _0106_
*123 _0107_
*124 _0108_
*125 _0109_
*126 _0110_
*127 _0111_
*128 _0112_
*129 _0113_
*130 _0114_
*131 _0115_
*132 _0116_
*133 _0117_
*134 _0118_
*135 _0119_
*136 _0120_
*137 _0121_
*138 _0122_
*139 _0123_
*140 _0124_
*141 _0125_
*142 _0126_
*143 _0127_
*144 _0128_
*145 _0129_
*146 _0130_
*147 _0131_
*148 _0132_
*149 _0133_
*150 _0134_
*151 _0135_
*152 _0136_
*153 _0137_
*154 _0138_
*155 _0139_
*156 _0140_
*157 _0141_
*158 _0142_
*159 _0143_
*160 _0144_
*161 _0145_
*162 _0146_
*163 _0147_
*164 _0148_
*165 _0149_
*166 _0150_
*167 _0151_
*168 _0152_
*169 _0153_
*170 _0154_
*171 _0155_
*172 _0156_
*173 _0157_
*174 _0158_
*175 _0159_
*176 _0160_
*177 _0161_
*178 _0162_
*179 _0163_
*180 _0164_
*181 _0165_
*182 _0166_
*183 _0167_
*184 _0168_
*185 _0169_
*186 _0170_
*187 _0171_
*188 _0172_
*189 _0173_
*190 _0174_
*191 _0175_
*192 _0176_
*193 _0177_
*194 _0178_
*195 _0179_
*196 _0180_
*197 _0181_
*198 _0182_
*199 _0183_
*200 _0184_
*201 _0185_
*202 _0186_
*203 _0187_
*204 _0188_
*205 _0189_
*206 _0190_
*207 _0191_
*208 _0192_
*209 _0193_
*210 _0194_
*211 _0195_
*212 _0196_
*213 _0197_
*214 _0198_
*215 _0199_
*216 _0200_
*217 _0201_
*218 _0202_
*219 _0203_
*220 _0204_
*221 _0205_
*222 _0206_
*223 _0207_
*224 _0208_
*225 _0209_
*226 _0210_
*227 _0211_
*228 _0212_
*229 _0213_
*230 _0214_
*231 _0215_
*232 _0216_
*233 _0217_
*234 _0218_
*235 _0219_
*236 _0220_
*237 _0221_
*238 _0222_
*239 _0223_
*240 _0224_
*241 _0225_
*242 _0226_
*243 _0227_
*244 _0228_
*245 _0229_
*246 _0230_
*247 _0231_
*248 _0232_
*249 _0233_
*250 _0234_
*251 _0235_
*252 _0236_
*253 _0237_
*254 _0238_
*255 _0239_
*256 _0240_
*257 _0241_
*258 _0242_
*259 _0243_
*260 _0244_
*261 _0245_
*262 _0246_
*263 _0247_
*264 _0248_
*265 _0249_
*266 _0250_
*267 _0251_
*268 _0252_
*269 _0253_
*270 _0254_
*271 _0255_
*272 _0256_
*273 _0257_
*274 _0258_
*275 _0259_
*276 _0260_
*277 _0261_
*278 _0262_
*279 _0263_
*280 _0264_
*281 _0265_
*282 _0266_
*283 _0267_
*284 _0268_
*285 _0269_
*286 _0270_
*287 _0271_
*288 _0272_
*289 _0273_
*290 _0274_
*291 _0275_
*292 _0276_
*293 _0277_
*294 _0278_
*295 _0279_
*296 _0280_
*297 _0281_
*298 _0282_
*299 _0283_
*300 _0284_
*301 _0285_
*302 _0286_
*303 _0287_
*304 _0288_
*305 _0289_
*306 _0290_
*307 _0291_
*308 _0292_
*309 _0293_
*310 _0294_
*311 _0295_
*312 _0296_
*313 _0297_
*314 _0298_
*315 _0299_
*316 _0300_
*317 _0301_
*318 _0302_
*319 _0303_
*320 _0304_
*321 _0305_
*322 _0306_
*323 _0307_
*324 _0308_
*325 _0309_
*326 _0310_
*327 _0311_
*328 _0312_
*329 _0313_
*330 _0314_
*331 _0315_
*332 _0316_
*333 _0317_
*334 _0318_
*335 _0319_
*336 _0320_
*337 _0321_
*338 _0322_
*339 _0323_
*340 _0324_
*341 _0325_
*342 _0326_
*343 _0327_
*344 _0328_
*345 _0329_
*346 _0330_
*347 _0331_
*348 _0332_
*349 _0333_
*350 _0334_
*351 _0335_
*352 _0336_
*353 _0337_
*354 _0338_
*355 _0339_
*356 _0340_
*357 _0341_
*358 _0342_
*359 _0343_
*360 _0344_
*361 _0345_
*362 _0346_
*363 _0347_
*364 _0348_
*365 _0349_
*366 _0350_
*367 _0351_
*368 _0352_
*369 _0353_
*370 _0354_
*371 _0355_
*372 _0356_
*373 _0357_
*374 _0358_
*375 _0359_
*376 _0360_
*377 _0361_
*378 _0362_
*379 _0363_
*380 _0364_
*381 _0365_
*382 _0366_
*383 _0367_
*384 _0368_
*385 _0369_
*386 _0370_
*387 _0371_
*388 _0372_
*389 _0373_
*390 _0374_
*391 _0375_
*392 _0376_
*393 _0377_
*394 _0378_
*395 _0379_
*396 _0380_
*397 _0381_
*398 _0382_
*399 _0383_
*400 _0384_
*401 _0385_
*402 _0386_
*403 _0387_
*404 _0388_
*405 _0389_
*406 _0390_
*407 _0391_
*408 _0392_
*409 _0393_
*410 _0394_
*411 _0395_
*412 _0396_
*413 _0397_
*414 _0398_
*415 _0399_
*416 _0400_
*417 _0401_
*418 _0402_
*419 _0403_
*420 _0404_
*421 _0405_
*422 _0406_
*423 _0407_
*424 _0408_
*425 _0409_
*426 _0410_
*427 _0411_
*428 _0412_
*429 _0413_
*430 _0414_
*431 _0415_
*432 _0416_
*433 _0417_
*434 _0418_
*435 _0419_
*436 _0420_
*437 _0421_
*438 _0422_
*439 _0423_
*440 _0424_
*441 _0425_
*442 _0426_
*443 _0427_
*444 _0428_
*445 _0429_
*446 _0430_
*447 _0431_
*448 _0432_
*449 _0433_
*450 _0434_
*451 _0435_
*452 _0436_
*453 _0437_
*454 _0438_
*455 _0439_
*456 _0440_
*457 _0441_
*458 _0442_
*459 _0443_
*460 _0444_
*461 _0445_
*462 _0446_
*463 _0447_
*464 _0448_
*465 _0449_
*466 _0450_
*467 _0451_
*468 _0452_
*469 _0453_
*470 _0454_
*471 _0455_
*472 _0456_
*473 _0457_
*474 _0458_
*475 _0459_
*476 _0460_
*477 _0461_
*478 _0462_
*479 _0463_
*480 _0464_
*481 _0465_
*482 _0466_
*483 _0467_
*484 _0468_
*485 _0469_
*486 _0470_
*487 _0471_
*488 _0472_
*489 _0473_
*490 _0474_
*491 _0475_
*492 _0476_
*493 _0477_
*494 _0478_
*495 _0479_
*496 _0480_
*497 _0481_
*498 _0482_
*499 _0483_
*500 _0484_
*501 _0485_
*502 _0486_
*503 _0487_
*504 _0488_
*505 _0489_
*506 _0490_
*507 _0491_
*508 _0492_
*509 _0493_
*510 _0494_
*511 _0495_
*512 _0496_
*513 _0497_
*514 _0498_
*515 _0499_
*516 _0500_
*517 _0501_
*518 _0502_
*519 _0503_
*520 _0504_
*521 _0505_
*522 _0506_
*523 _0507_
*524 _0508_
*525 _0509_
*526 _0510_
*527 _0511_
*528 _0512_
*529 _0513_
*530 _0514_
*531 _0515_
*532 _0516_
*533 _0517_
*534 _0518_
*535 _0519_
*536 _0520_
*537 _0521_
*538 _0522_
*539 _0523_
*540 _0524_
*541 _0525_
*542 _0526_
*543 _0527_
*544 clknet_0_A_in_serial_clk
*545 clknet_0_B_in_serial_clk
*546 clknet_0_clk
*547 clknet_2_0__leaf_clk
*548 clknet_2_1__leaf_clk
*549 clknet_2_2__leaf_clk
*550 clknet_2_3__leaf_clk
*551 clknet_4_0_0_A_in_serial_clk
*552 clknet_4_0_0_B_in_serial_clk
*553 clknet_4_10_0_A_in_serial_clk
*554 clknet_4_10_0_B_in_serial_clk
*555 clknet_4_11_0_A_in_serial_clk
*556 clknet_4_11_0_B_in_serial_clk
*557 clknet_4_12_0_A_in_serial_clk
*558 clknet_4_12_0_B_in_serial_clk
*559 clknet_4_13_0_A_in_serial_clk
*560 clknet_4_13_0_B_in_serial_clk
*561 clknet_4_14_0_A_in_serial_clk
*562 clknet_4_14_0_B_in_serial_clk
*563 clknet_4_15_0_A_in_serial_clk
*564 clknet_4_15_0_B_in_serial_clk
*565 clknet_4_1_0_A_in_serial_clk
*566 clknet_4_1_0_B_in_serial_clk
*567 clknet_4_2_0_A_in_serial_clk
*568 clknet_4_2_0_B_in_serial_clk
*569 clknet_4_3_0_A_in_serial_clk
*570 clknet_4_3_0_B_in_serial_clk
*571 clknet_4_4_0_A_in_serial_clk
*572 clknet_4_4_0_B_in_serial_clk
*573 clknet_4_5_0_A_in_serial_clk
*574 clknet_4_5_0_B_in_serial_clk
*575 clknet_4_6_0_A_in_serial_clk
*576 clknet_4_6_0_B_in_serial_clk
*577 clknet_4_7_0_A_in_serial_clk
*578 clknet_4_7_0_B_in_serial_clk
*579 clknet_4_8_0_A_in_serial_clk
*580 clknet_4_8_0_B_in_serial_clk
*581 clknet_4_9_0_A_in_serial_clk
*582 clknet_4_9_0_B_in_serial_clk
*583 deser_A\.bit_idx\[0\]
*584 deser_A\.bit_idx\[1\]
*585 deser_A\.bit_idx\[2\]
*586 deser_A\.bit_idx\[3\]
*587 deser_A\.bit_idx\[4\]
*588 deser_A\.bit_idx\[5\]
*589 deser_A\.bit_idx\[6\]
*590 deser_A\.bit_idx\[7\]
*591 deser_A\.kept_bit_idx\[0\]
*592 deser_A\.kept_bit_idx\[1\]
*593 deser_A\.kept_bit_idx\[2\]
*594 deser_A\.kept_bit_idx\[3\]
*595 deser_A\.kept_bit_idx\[4\]
*596 deser_A\.kept_bit_idx\[5\]
*597 deser_A\.kept_bit_idx\[6\]
*598 deser_A\.kept_bit_idx\[7\]
*599 deser_A\.kept_receiving
*600 deser_A\.kept_shift_reg\[0\]
*601 deser_A\.kept_shift_reg\[100\]
*602 deser_A\.kept_shift_reg\[101\]
*603 deser_A\.kept_shift_reg\[102\]
*604 deser_A\.kept_shift_reg\[103\]
*605 deser_A\.kept_shift_reg\[104\]
*606 deser_A\.kept_shift_reg\[105\]
*607 deser_A\.kept_shift_reg\[106\]
*608 deser_A\.kept_shift_reg\[107\]
*609 deser_A\.kept_shift_reg\[108\]
*610 deser_A\.kept_shift_reg\[109\]
*611 deser_A\.kept_shift_reg\[10\]
*612 deser_A\.kept_shift_reg\[110\]
*613 deser_A\.kept_shift_reg\[111\]
*614 deser_A\.kept_shift_reg\[112\]
*615 deser_A\.kept_shift_reg\[113\]
*616 deser_A\.kept_shift_reg\[114\]
*617 deser_A\.kept_shift_reg\[115\]
*618 deser_A\.kept_shift_reg\[116\]
*619 deser_A\.kept_shift_reg\[117\]
*620 deser_A\.kept_shift_reg\[118\]
*621 deser_A\.kept_shift_reg\[119\]
*622 deser_A\.kept_shift_reg\[11\]
*623 deser_A\.kept_shift_reg\[120\]
*624 deser_A\.kept_shift_reg\[121\]
*625 deser_A\.kept_shift_reg\[122\]
*626 deser_A\.kept_shift_reg\[123\]
*627 deser_A\.kept_shift_reg\[124\]
*628 deser_A\.kept_shift_reg\[125\]
*629 deser_A\.kept_shift_reg\[126\]
*630 deser_A\.kept_shift_reg\[127\]
*631 deser_A\.kept_shift_reg\[12\]
*632 deser_A\.kept_shift_reg\[13\]
*633 deser_A\.kept_shift_reg\[14\]
*634 deser_A\.kept_shift_reg\[15\]
*635 deser_A\.kept_shift_reg\[16\]
*636 deser_A\.kept_shift_reg\[17\]
*637 deser_A\.kept_shift_reg\[18\]
*638 deser_A\.kept_shift_reg\[19\]
*639 deser_A\.kept_shift_reg\[1\]
*640 deser_A\.kept_shift_reg\[20\]
*641 deser_A\.kept_shift_reg\[21\]
*642 deser_A\.kept_shift_reg\[22\]
*643 deser_A\.kept_shift_reg\[23\]
*644 deser_A\.kept_shift_reg\[24\]
*645 deser_A\.kept_shift_reg\[25\]
*646 deser_A\.kept_shift_reg\[26\]
*647 deser_A\.kept_shift_reg\[27\]
*648 deser_A\.kept_shift_reg\[28\]
*649 deser_A\.kept_shift_reg\[29\]
*650 deser_A\.kept_shift_reg\[2\]
*651 deser_A\.kept_shift_reg\[30\]
*652 deser_A\.kept_shift_reg\[31\]
*653 deser_A\.kept_shift_reg\[32\]
*654 deser_A\.kept_shift_reg\[33\]
*655 deser_A\.kept_shift_reg\[34\]
*656 deser_A\.kept_shift_reg\[35\]
*657 deser_A\.kept_shift_reg\[36\]
*658 deser_A\.kept_shift_reg\[37\]
*659 deser_A\.kept_shift_reg\[38\]
*660 deser_A\.kept_shift_reg\[39\]
*661 deser_A\.kept_shift_reg\[3\]
*662 deser_A\.kept_shift_reg\[40\]
*663 deser_A\.kept_shift_reg\[41\]
*664 deser_A\.kept_shift_reg\[42\]
*665 deser_A\.kept_shift_reg\[43\]
*666 deser_A\.kept_shift_reg\[44\]
*667 deser_A\.kept_shift_reg\[45\]
*668 deser_A\.kept_shift_reg\[46\]
*669 deser_A\.kept_shift_reg\[47\]
*670 deser_A\.kept_shift_reg\[48\]
*671 deser_A\.kept_shift_reg\[49\]
*672 deser_A\.kept_shift_reg\[4\]
*673 deser_A\.kept_shift_reg\[50\]
*674 deser_A\.kept_shift_reg\[51\]
*675 deser_A\.kept_shift_reg\[52\]
*676 deser_A\.kept_shift_reg\[53\]
*677 deser_A\.kept_shift_reg\[54\]
*678 deser_A\.kept_shift_reg\[55\]
*679 deser_A\.kept_shift_reg\[56\]
*680 deser_A\.kept_shift_reg\[57\]
*681 deser_A\.kept_shift_reg\[58\]
*682 deser_A\.kept_shift_reg\[59\]
*683 deser_A\.kept_shift_reg\[5\]
*684 deser_A\.kept_shift_reg\[60\]
*685 deser_A\.kept_shift_reg\[61\]
*686 deser_A\.kept_shift_reg\[62\]
*687 deser_A\.kept_shift_reg\[63\]
*688 deser_A\.kept_shift_reg\[64\]
*689 deser_A\.kept_shift_reg\[65\]
*690 deser_A\.kept_shift_reg\[66\]
*691 deser_A\.kept_shift_reg\[67\]
*692 deser_A\.kept_shift_reg\[68\]
*693 deser_A\.kept_shift_reg\[69\]
*694 deser_A\.kept_shift_reg\[6\]
*695 deser_A\.kept_shift_reg\[70\]
*696 deser_A\.kept_shift_reg\[71\]
*697 deser_A\.kept_shift_reg\[72\]
*698 deser_A\.kept_shift_reg\[73\]
*699 deser_A\.kept_shift_reg\[74\]
*700 deser_A\.kept_shift_reg\[75\]
*701 deser_A\.kept_shift_reg\[76\]
*702 deser_A\.kept_shift_reg\[77\]
*703 deser_A\.kept_shift_reg\[78\]
*704 deser_A\.kept_shift_reg\[79\]
*705 deser_A\.kept_shift_reg\[7\]
*706 deser_A\.kept_shift_reg\[80\]
*707 deser_A\.kept_shift_reg\[81\]
*708 deser_A\.kept_shift_reg\[82\]
*709 deser_A\.kept_shift_reg\[83\]
*710 deser_A\.kept_shift_reg\[84\]
*711 deser_A\.kept_shift_reg\[85\]
*712 deser_A\.kept_shift_reg\[86\]
*713 deser_A\.kept_shift_reg\[87\]
*714 deser_A\.kept_shift_reg\[88\]
*715 deser_A\.kept_shift_reg\[89\]
*716 deser_A\.kept_shift_reg\[8\]
*717 deser_A\.kept_shift_reg\[90\]
*718 deser_A\.kept_shift_reg\[91\]
*719 deser_A\.kept_shift_reg\[92\]
*720 deser_A\.kept_shift_reg\[93\]
*721 deser_A\.kept_shift_reg\[94\]
*722 deser_A\.kept_shift_reg\[95\]
*723 deser_A\.kept_shift_reg\[96\]
*724 deser_A\.kept_shift_reg\[97\]
*725 deser_A\.kept_shift_reg\[98\]
*726 deser_A\.kept_shift_reg\[99\]
*727 deser_A\.kept_shift_reg\[9\]
*728 deser_A\.receiving
*729 deser_B\.bit_idx\[0\]
*730 deser_B\.bit_idx\[1\]
*731 deser_B\.bit_idx\[2\]
*732 deser_B\.bit_idx\[3\]
*733 deser_B\.bit_idx\[4\]
*734 deser_B\.bit_idx\[5\]
*735 deser_B\.bit_idx\[6\]
*736 deser_B\.bit_idx\[7\]
*737 deser_B\.kept_bit_idx\[0\]
*738 deser_B\.kept_bit_idx\[1\]
*739 deser_B\.kept_bit_idx\[2\]
*740 deser_B\.kept_bit_idx\[3\]
*741 deser_B\.kept_bit_idx\[4\]
*742 deser_B\.kept_bit_idx\[5\]
*743 deser_B\.kept_bit_idx\[6\]
*744 deser_B\.kept_bit_idx\[7\]
*745 deser_B\.kept_receiving
*746 deser_B\.kept_shift_reg\[0\]
*747 deser_B\.kept_shift_reg\[100\]
*748 deser_B\.kept_shift_reg\[101\]
*749 deser_B\.kept_shift_reg\[102\]
*750 deser_B\.kept_shift_reg\[103\]
*751 deser_B\.kept_shift_reg\[104\]
*752 deser_B\.kept_shift_reg\[105\]
*753 deser_B\.kept_shift_reg\[106\]
*754 deser_B\.kept_shift_reg\[107\]
*755 deser_B\.kept_shift_reg\[108\]
*756 deser_B\.kept_shift_reg\[109\]
*757 deser_B\.kept_shift_reg\[10\]
*758 deser_B\.kept_shift_reg\[110\]
*759 deser_B\.kept_shift_reg\[111\]
*760 deser_B\.kept_shift_reg\[112\]
*761 deser_B\.kept_shift_reg\[113\]
*762 deser_B\.kept_shift_reg\[114\]
*763 deser_B\.kept_shift_reg\[115\]
*764 deser_B\.kept_shift_reg\[116\]
*765 deser_B\.kept_shift_reg\[117\]
*766 deser_B\.kept_shift_reg\[118\]
*767 deser_B\.kept_shift_reg\[119\]
*768 deser_B\.kept_shift_reg\[11\]
*769 deser_B\.kept_shift_reg\[120\]
*770 deser_B\.kept_shift_reg\[121\]
*771 deser_B\.kept_shift_reg\[122\]
*772 deser_B\.kept_shift_reg\[123\]
*773 deser_B\.kept_shift_reg\[124\]
*774 deser_B\.kept_shift_reg\[125\]
*775 deser_B\.kept_shift_reg\[126\]
*776 deser_B\.kept_shift_reg\[127\]
*777 deser_B\.kept_shift_reg\[12\]
*778 deser_B\.kept_shift_reg\[13\]
*779 deser_B\.kept_shift_reg\[14\]
*780 deser_B\.kept_shift_reg\[15\]
*781 deser_B\.kept_shift_reg\[16\]
*782 deser_B\.kept_shift_reg\[17\]
*783 deser_B\.kept_shift_reg\[18\]
*784 deser_B\.kept_shift_reg\[19\]
*785 deser_B\.kept_shift_reg\[1\]
*786 deser_B\.kept_shift_reg\[20\]
*787 deser_B\.kept_shift_reg\[21\]
*788 deser_B\.kept_shift_reg\[22\]
*789 deser_B\.kept_shift_reg\[23\]
*790 deser_B\.kept_shift_reg\[24\]
*791 deser_B\.kept_shift_reg\[25\]
*792 deser_B\.kept_shift_reg\[26\]
*793 deser_B\.kept_shift_reg\[27\]
*794 deser_B\.kept_shift_reg\[28\]
*795 deser_B\.kept_shift_reg\[29\]
*796 deser_B\.kept_shift_reg\[2\]
*797 deser_B\.kept_shift_reg\[30\]
*798 deser_B\.kept_shift_reg\[31\]
*799 deser_B\.kept_shift_reg\[32\]
*800 deser_B\.kept_shift_reg\[33\]
*801 deser_B\.kept_shift_reg\[34\]
*802 deser_B\.kept_shift_reg\[35\]
*803 deser_B\.kept_shift_reg\[36\]
*804 deser_B\.kept_shift_reg\[37\]
*805 deser_B\.kept_shift_reg\[38\]
*806 deser_B\.kept_shift_reg\[39\]
*807 deser_B\.kept_shift_reg\[3\]
*808 deser_B\.kept_shift_reg\[40\]
*809 deser_B\.kept_shift_reg\[41\]
*810 deser_B\.kept_shift_reg\[42\]
*811 deser_B\.kept_shift_reg\[43\]
*812 deser_B\.kept_shift_reg\[44\]
*813 deser_B\.kept_shift_reg\[45\]
*814 deser_B\.kept_shift_reg\[46\]
*815 deser_B\.kept_shift_reg\[47\]
*816 deser_B\.kept_shift_reg\[48\]
*817 deser_B\.kept_shift_reg\[49\]
*818 deser_B\.kept_shift_reg\[4\]
*819 deser_B\.kept_shift_reg\[50\]
*820 deser_B\.kept_shift_reg\[51\]
*821 deser_B\.kept_shift_reg\[52\]
*822 deser_B\.kept_shift_reg\[53\]
*823 deser_B\.kept_shift_reg\[54\]
*824 deser_B\.kept_shift_reg\[55\]
*825 deser_B\.kept_shift_reg\[56\]
*826 deser_B\.kept_shift_reg\[57\]
*827 deser_B\.kept_shift_reg\[58\]
*828 deser_B\.kept_shift_reg\[59\]
*829 deser_B\.kept_shift_reg\[5\]
*830 deser_B\.kept_shift_reg\[60\]
*831 deser_B\.kept_shift_reg\[61\]
*832 deser_B\.kept_shift_reg\[62\]
*833 deser_B\.kept_shift_reg\[63\]
*834 deser_B\.kept_shift_reg\[64\]
*835 deser_B\.kept_shift_reg\[65\]
*836 deser_B\.kept_shift_reg\[66\]
*837 deser_B\.kept_shift_reg\[67\]
*838 deser_B\.kept_shift_reg\[68\]
*839 deser_B\.kept_shift_reg\[69\]
*840 deser_B\.kept_shift_reg\[6\]
*841 deser_B\.kept_shift_reg\[70\]
*842 deser_B\.kept_shift_reg\[71\]
*843 deser_B\.kept_shift_reg\[72\]
*844 deser_B\.kept_shift_reg\[73\]
*845 deser_B\.kept_shift_reg\[74\]
*846 deser_B\.kept_shift_reg\[75\]
*847 deser_B\.kept_shift_reg\[76\]
*848 deser_B\.kept_shift_reg\[77\]
*849 deser_B\.kept_shift_reg\[78\]
*850 deser_B\.kept_shift_reg\[79\]
*851 deser_B\.kept_shift_reg\[7\]
*852 deser_B\.kept_shift_reg\[80\]
*853 deser_B\.kept_shift_reg\[81\]
*854 deser_B\.kept_shift_reg\[82\]
*855 deser_B\.kept_shift_reg\[83\]
*856 deser_B\.kept_shift_reg\[84\]
*857 deser_B\.kept_shift_reg\[85\]
*858 deser_B\.kept_shift_reg\[86\]
*859 deser_B\.kept_shift_reg\[87\]
*860 deser_B\.kept_shift_reg\[88\]
*861 deser_B\.kept_shift_reg\[89\]
*862 deser_B\.kept_shift_reg\[8\]
*863 deser_B\.kept_shift_reg\[90\]
*864 deser_B\.kept_shift_reg\[91\]
*865 deser_B\.kept_shift_reg\[92\]
*866 deser_B\.kept_shift_reg\[93\]
*867 deser_B\.kept_shift_reg\[94\]
*868 deser_B\.kept_shift_reg\[95\]
*869 deser_B\.kept_shift_reg\[96\]
*870 deser_B\.kept_shift_reg\[97\]
*871 deser_B\.kept_shift_reg\[98\]
*872 deser_B\.kept_shift_reg\[99\]
*873 deser_B\.kept_shift_reg\[9\]
*874 deser_B\.receiving
*875 net1
*876 net10
*877 net11
*878 net12
*879 net13
*880 net14
*881 net15
*882 net17
*883 net18
*884 net19
*885 net2
*886 net20
*887 net21
*888 net22
*889 net23
*890 net24
*891 net25
*892 net26
*893 net27
*894 net28
*895 net29
*896 net3
*897 net30
*898 net31
*899 net32
*900 net33
*901 net34
*902 net35
*903 net36
*904 net37
*905 net38
*906 net39
*907 net4
*908 net40
*909 net41
*910 net42
*911 net43
*912 net44
*913 net45
*914 net47
*915 net490
*916 net491
*917 net492
*918 net493
*919 net494
*920 net495
*921 net496
*922 net497
*923 net499
*924 net5
*925 net500
*926 net501
*927 net502
*928 net503
*929 net504
*930 net505
*931 net506
*932 net508
*933 net509
*934 net6
*935 net640
*936 net641
*937 net642
*938 net643
*939 net644
*940 net645
*941 net646
*942 net647
*943 net7
*944 net728
*945 net729
*946 net730
*947 net731
*948 net732
*949 net733
*950 net734
*951 net735
*952 net736
*953 net737
*954 net739
*955 net740
*956 net769
*957 net8
*958 net808
*959 net809
*960 net810
*961 net811
*962 net814
*963 net816
*964 net818
*965 net820
*966 net821
*967 net845
*968 net846
*969 net847
*970 net848
*971 net9
*972 ser_C\.bit_idx\[0\]
*973 ser_C\.bit_idx\[1\]
*974 ser_C\.bit_idx\[2\]
*975 ser_C\.bit_idx\[3\]
*976 ser_C\.bit_idx\[4\]
*977 ser_C\.bit_idx\[5\]
*978 ser_C\.bit_idx\[6\]
*979 ser_C\.bit_idx\[7\]
*980 ser_C\.bit_idx\[8\]
*981 ser_C\.bit_idx\[9\]
*982 ser_C\.kept_bit_idx\[0\]
*983 ser_C\.kept_bit_idx\[1\]
*984 ser_C\.kept_bit_idx\[2\]
*985 ser_C\.kept_bit_idx\[3\]
*986 ser_C\.kept_bit_idx\[4\]
*987 ser_C\.kept_bit_idx\[5\]
*988 ser_C\.kept_bit_idx\[6\]
*989 ser_C\.kept_bit_idx\[7\]
*990 ser_C\.kept_bit_idx\[8\]
*991 ser_C\.kept_bit_idx\[9\]
*992 systolic_inst\.ce_local
*993 systolic_inst\.cycle_cnt\[0\]
*994 systolic_inst\.cycle_cnt\[10\]
*995 systolic_inst\.cycle_cnt\[11\]
*996 systolic_inst\.cycle_cnt\[12\]
*997 systolic_inst\.cycle_cnt\[13\]
*998 systolic_inst\.cycle_cnt\[14\]
*999 systolic_inst\.cycle_cnt\[15\]
*1000 systolic_inst\.cycle_cnt\[16\]
*1001 systolic_inst\.cycle_cnt\[17\]
*1002 systolic_inst\.cycle_cnt\[18\]
*1003 systolic_inst\.cycle_cnt\[19\]
*1004 systolic_inst\.cycle_cnt\[1\]
*1005 systolic_inst\.cycle_cnt\[20\]
*1006 systolic_inst\.cycle_cnt\[21\]
*1007 systolic_inst\.cycle_cnt\[22\]
*1008 systolic_inst\.cycle_cnt\[23\]
*1009 systolic_inst\.cycle_cnt\[24\]
*1010 systolic_inst\.cycle_cnt\[25\]
*1011 systolic_inst\.cycle_cnt\[26\]
*1012 systolic_inst\.cycle_cnt\[27\]
*1013 systolic_inst\.cycle_cnt\[28\]
*1014 systolic_inst\.cycle_cnt\[29\]
*1015 systolic_inst\.cycle_cnt\[2\]
*1016 systolic_inst\.cycle_cnt\[30\]
*1017 systolic_inst\.cycle_cnt\[31\]
*1018 systolic_inst\.cycle_cnt\[3\]
*1019 systolic_inst\.cycle_cnt\[4\]
*1020 systolic_inst\.cycle_cnt\[5\]
*1021 systolic_inst\.cycle_cnt\[6\]
*1022 systolic_inst\.cycle_cnt\[7\]
*1023 systolic_inst\.cycle_cnt\[8\]
*1024 systolic_inst\.cycle_cnt\[9\]
*1025 ANTENNA_1
*1026 ANTENNA_2
*1027 ANTENNA_3
*1028 ANTENNA_4
*1029 ANTENNA_5
*1030 ANTENNA_6
*1031 ANTENNA_7
*1032 ANTENNA_8
*1033 ANTENNA_9
*1034 FILLER_0_109
*1035 FILLER_0_113
*1036 FILLER_0_125
*1037 FILLER_0_137
*1038 FILLER_0_141
*1039 FILLER_0_15
*1040 FILLER_0_153
*1041 FILLER_0_165
*1042 FILLER_0_169
*1043 FILLER_0_181
*1044 FILLER_0_193
*1045 FILLER_0_197
*1046 FILLER_0_209
*1047 FILLER_0_221
*1048 FILLER_0_225
*1049 FILLER_0_237
*1050 FILLER_0_244
*1051 FILLER_0_253
*1052 FILLER_0_265
*1053 FILLER_0_27
*1054 FILLER_0_277
*1055 FILLER_0_281
*1056 FILLER_0_29
*1057 FILLER_0_293
*1058 FILLER_0_3
*1059 FILLER_0_305
*1060 FILLER_0_309
*1061 FILLER_0_321
*1062 FILLER_0_333
*1063 FILLER_0_337
*1064 FILLER_0_349
*1065 FILLER_0_361
*1066 FILLER_0_365
*1067 FILLER_0_377
*1068 FILLER_0_385
*1069 FILLER_0_41
*1070 FILLER_0_53
*1071 FILLER_0_57
*1072 FILLER_0_69
*1073 FILLER_0_81
*1074 FILLER_0_85
*1075 FILLER_0_97
*1076 FILLER_10_109
*1077 FILLER_10_121
*1078 FILLER_10_133
*1079 FILLER_10_139
*1080 FILLER_10_141
*1081 FILLER_10_15
*1082 FILLER_10_163
*1083 FILLER_10_197
*1084 FILLER_10_201
*1085 FILLER_10_251
*1086 FILLER_10_27
*1087 FILLER_10_273
*1088 FILLER_10_29
*1089 FILLER_10_296
*1090 FILLER_10_3
*1091 FILLER_10_357
*1092 FILLER_10_362
*1093 FILLER_10_385
*1094 FILLER_10_41
*1095 FILLER_10_53
*1096 FILLER_10_65
*1097 FILLER_10_77
*1098 FILLER_10_83
*1099 FILLER_10_85
*1100 FILLER_10_97
*1101 FILLER_11_105
*1102 FILLER_11_111
*1103 FILLER_11_113
*1104 FILLER_11_125
*1105 FILLER_11_137
*1106 FILLER_11_15
*1107 FILLER_11_158
*1108 FILLER_11_166
*1109 FILLER_11_180
*1110 FILLER_11_184
*1111 FILLER_11_197
*1112 FILLER_11_205
*1113 FILLER_11_219
*1114 FILLER_11_223
*1115 FILLER_11_225
*1116 FILLER_11_239
*1117 FILLER_11_254
*1118 FILLER_11_262
*1119 FILLER_11_27
*1120 FILLER_11_285
*1121 FILLER_11_3
*1122 FILLER_11_307
*1123 FILLER_11_334
*1124 FILLER_11_352
*1125 FILLER_11_377
*1126 FILLER_11_385
*1127 FILLER_11_39
*1128 FILLER_11_51
*1129 FILLER_11_55
*1130 FILLER_11_57
*1131 FILLER_11_69
*1132 FILLER_11_81
*1133 FILLER_11_93
*1134 FILLER_12_109
*1135 FILLER_12_121
*1136 FILLER_12_133
*1137 FILLER_12_139
*1138 FILLER_12_141
*1139 FILLER_12_147
*1140 FILLER_12_15
*1141 FILLER_12_160
*1142 FILLER_12_194
*1143 FILLER_12_197
*1144 FILLER_12_201
*1145 FILLER_12_222
*1146 FILLER_12_246
*1147 FILLER_12_27
*1148 FILLER_12_274
*1149 FILLER_12_29
*1150 FILLER_12_3
*1151 FILLER_12_301
*1152 FILLER_12_363
*1153 FILLER_12_369
*1154 FILLER_12_381
*1155 FILLER_12_387
*1156 FILLER_12_41
*1157 FILLER_12_53
*1158 FILLER_12_65
*1159 FILLER_12_77
*1160 FILLER_12_83
*1161 FILLER_12_85
*1162 FILLER_12_97
*1163 FILLER_13_105
*1164 FILLER_13_111
*1165 FILLER_13_113
*1166 FILLER_13_125
*1167 FILLER_13_133
*1168 FILLER_13_15
*1169 FILLER_13_156
*1170 FILLER_13_169
*1171 FILLER_13_173
*1172 FILLER_13_222
*1173 FILLER_13_249
*1174 FILLER_13_27
*1175 FILLER_13_273
*1176 FILLER_13_3
*1177 FILLER_13_337
*1178 FILLER_13_370
*1179 FILLER_13_382
*1180 FILLER_13_39
*1181 FILLER_13_51
*1182 FILLER_13_55
*1183 FILLER_13_57
*1184 FILLER_13_69
*1185 FILLER_13_81
*1186 FILLER_13_93
*1187 FILLER_14_109
*1188 FILLER_14_121
*1189 FILLER_14_133
*1190 FILLER_14_139
*1191 FILLER_14_141
*1192 FILLER_14_147
*1193 FILLER_14_15
*1194 FILLER_14_160
*1195 FILLER_14_183
*1196 FILLER_14_197
*1197 FILLER_14_210
*1198 FILLER_14_232
*1199 FILLER_14_244
*1200 FILLER_14_27
*1201 FILLER_14_273
*1202 FILLER_14_281
*1203 FILLER_14_29
*1204 FILLER_14_3
*1205 FILLER_14_309
*1206 FILLER_14_361
*1207 FILLER_14_375
*1208 FILLER_14_387
*1209 FILLER_14_41
*1210 FILLER_14_53
*1211 FILLER_14_65
*1212 FILLER_14_77
*1213 FILLER_14_83
*1214 FILLER_14_85
*1215 FILLER_14_97
*1216 FILLER_15_105
*1217 FILLER_15_111
*1218 FILLER_15_113
*1219 FILLER_15_125
*1220 FILLER_15_15
*1221 FILLER_15_166
*1222 FILLER_15_169
*1223 FILLER_15_187
*1224 FILLER_15_222
*1225 FILLER_15_246
*1226 FILLER_15_254
*1227 FILLER_15_266
*1228 FILLER_15_27
*1229 FILLER_15_270
*1230 FILLER_15_281
*1231 FILLER_15_285
*1232 FILLER_15_3
*1233 FILLER_15_321
*1234 FILLER_15_337
*1235 FILLER_15_383
*1236 FILLER_15_387
*1237 FILLER_15_39
*1238 FILLER_15_51
*1239 FILLER_15_55
*1240 FILLER_15_57
*1241 FILLER_15_69
*1242 FILLER_15_81
*1243 FILLER_15_93
*1244 FILLER_16_109
*1245 FILLER_16_121
*1246 FILLER_16_133
*1247 FILLER_16_139
*1248 FILLER_16_141
*1249 FILLER_16_15
*1250 FILLER_16_153
*1251 FILLER_16_194
*1252 FILLER_16_250
*1253 FILLER_16_253
*1254 FILLER_16_265
*1255 FILLER_16_27
*1256 FILLER_16_271
*1257 FILLER_16_29
*1258 FILLER_16_3
*1259 FILLER_16_301
*1260 FILLER_16_307
*1261 FILLER_16_365
*1262 FILLER_16_377
*1263 FILLER_16_385
*1264 FILLER_16_41
*1265 FILLER_16_53
*1266 FILLER_16_65
*1267 FILLER_16_77
*1268 FILLER_16_83
*1269 FILLER_16_85
*1270 FILLER_16_97
*1271 FILLER_17_105
*1272 FILLER_17_111
*1273 FILLER_17_113
*1274 FILLER_17_125
*1275 FILLER_17_137
*1276 FILLER_17_15
*1277 FILLER_17_169
*1278 FILLER_17_177
*1279 FILLER_17_210
*1280 FILLER_17_222
*1281 FILLER_17_225
*1282 FILLER_17_27
*1283 FILLER_17_273
*1284 FILLER_17_279
*1285 FILLER_17_281
*1286 FILLER_17_3
*1287 FILLER_17_304
*1288 FILLER_17_316
*1289 FILLER_17_320
*1290 FILLER_17_324
*1291 FILLER_17_335
*1292 FILLER_17_337
*1293 FILLER_17_349
*1294 FILLER_17_361
*1295 FILLER_17_373
*1296 FILLER_17_385
*1297 FILLER_17_39
*1298 FILLER_17_51
*1299 FILLER_17_55
*1300 FILLER_17_57
*1301 FILLER_17_69
*1302 FILLER_17_81
*1303 FILLER_17_93
*1304 FILLER_18_109
*1305 FILLER_18_121
*1306 FILLER_18_133
*1307 FILLER_18_139
*1308 FILLER_18_141
*1309 FILLER_18_149
*1310 FILLER_18_15
*1311 FILLER_18_164
*1312 FILLER_18_187
*1313 FILLER_18_195
*1314 FILLER_18_197
*1315 FILLER_18_242
*1316 FILLER_18_253
*1317 FILLER_18_259
*1318 FILLER_18_27
*1319 FILLER_18_29
*1320 FILLER_18_3
*1321 FILLER_18_300
*1322 FILLER_18_329
*1323 FILLER_18_341
*1324 FILLER_18_377
*1325 FILLER_18_385
*1326 FILLER_18_41
*1327 FILLER_18_53
*1328 FILLER_18_65
*1329 FILLER_18_77
*1330 FILLER_18_83
*1331 FILLER_18_85
*1332 FILLER_18_97
*1333 FILLER_19_105
*1334 FILLER_19_111
*1335 FILLER_19_113
*1336 FILLER_19_125
*1337 FILLER_19_137
*1338 FILLER_19_143
*1339 FILLER_19_15
*1340 FILLER_19_164
*1341 FILLER_19_169
*1342 FILLER_19_177
*1343 FILLER_19_214
*1344 FILLER_19_222
*1345 FILLER_19_237
*1346 FILLER_19_269
*1347 FILLER_19_27
*1348 FILLER_19_277
*1349 FILLER_19_290
*1350 FILLER_19_3
*1351 FILLER_19_330
*1352 FILLER_19_349
*1353 FILLER_19_371
*1354 FILLER_19_383
*1355 FILLER_19_387
*1356 FILLER_19_39
*1357 FILLER_19_51
*1358 FILLER_19_55
*1359 FILLER_19_57
*1360 FILLER_19_69
*1361 FILLER_19_81
*1362 FILLER_19_93
*1363 FILLER_1_105
*1364 FILLER_1_111
*1365 FILLER_1_113
*1366 FILLER_1_125
*1367 FILLER_1_137
*1368 FILLER_1_149
*1369 FILLER_1_15
*1370 FILLER_1_161
*1371 FILLER_1_167
*1372 FILLER_1_169
*1373 FILLER_1_181
*1374 FILLER_1_193
*1375 FILLER_1_205
*1376 FILLER_1_217
*1377 FILLER_1_223
*1378 FILLER_1_225
*1379 FILLER_1_237
*1380 FILLER_1_249
*1381 FILLER_1_261
*1382 FILLER_1_27
*1383 FILLER_1_273
*1384 FILLER_1_279
*1385 FILLER_1_281
*1386 FILLER_1_293
*1387 FILLER_1_3
*1388 FILLER_1_305
*1389 FILLER_1_313
*1390 FILLER_1_357
*1391 FILLER_1_369
*1392 FILLER_1_381
*1393 FILLER_1_387
*1394 FILLER_1_39
*1395 FILLER_1_51
*1396 FILLER_1_55
*1397 FILLER_1_57
*1398 FILLER_1_69
*1399 FILLER_1_81
*1400 FILLER_1_93
*1401 FILLER_20_109
*1402 FILLER_20_121
*1403 FILLER_20_133
*1404 FILLER_20_139
*1405 FILLER_20_141
*1406 FILLER_20_149
*1407 FILLER_20_164
*1408 FILLER_20_190
*1409 FILLER_20_197
*1410 FILLER_20_209
*1411 FILLER_20_213
*1412 FILLER_20_234
*1413 FILLER_20_246
*1414 FILLER_20_25
*1415 FILLER_20_265
*1416 FILLER_20_277
*1417 FILLER_20_289
*1418 FILLER_20_29
*1419 FILLER_20_3
*1420 FILLER_20_301
*1421 FILLER_20_307
*1422 FILLER_20_309
*1423 FILLER_20_317
*1424 FILLER_20_360
*1425 FILLER_20_374
*1426 FILLER_20_386
*1427 FILLER_20_41
*1428 FILLER_20_53
*1429 FILLER_20_65
*1430 FILLER_20_77
*1431 FILLER_20_83
*1432 FILLER_20_85
*1433 FILLER_20_97
*1434 FILLER_21_103
*1435 FILLER_21_111
*1436 FILLER_21_113
*1437 FILLER_21_125
*1438 FILLER_21_137
*1439 FILLER_21_163
*1440 FILLER_21_167
*1441 FILLER_21_169
*1442 FILLER_21_177
*1443 FILLER_21_18
*1444 FILLER_21_200
*1445 FILLER_21_221
*1446 FILLER_21_249
*1447 FILLER_21_257
*1448 FILLER_21_279
*1449 FILLER_21_290
*1450 FILLER_21_318
*1451 FILLER_21_330
*1452 FILLER_21_346
*1453 FILLER_21_359
*1454 FILLER_21_371
*1455 FILLER_21_383
*1456 FILLER_21_387
*1457 FILLER_21_40
*1458 FILLER_21_55
*1459 FILLER_21_6
*1460 FILLER_21_77
*1461 FILLER_21_85
*1462 FILLER_21_91
*1463 FILLER_22_10
*1464 FILLER_22_115
*1465 FILLER_22_127
*1466 FILLER_22_139
*1467 FILLER_22_161
*1468 FILLER_22_169
*1469 FILLER_22_191
*1470 FILLER_22_195
*1471 FILLER_22_197
*1472 FILLER_22_249
*1473 FILLER_22_26
*1474 FILLER_22_293
*1475 FILLER_22_305
*1476 FILLER_22_309
*1477 FILLER_22_32
*1478 FILLER_22_353
*1479 FILLER_22_361
*1480 FILLER_22_377
*1481 FILLER_22_385
*1482 FILLER_22_40
*1483 FILLER_22_62
*1484 FILLER_22_74
*1485 FILLER_22_82
*1486 FILLER_22_85
*1487 FILLER_23_101
*1488 FILLER_23_109